Program Version,EnergyPlus, Version 9.6.0-f420c06a69, YMD=2022.03.11 12:46
! This file shows details about the branches, nodes, and other
! elements of the flow connections.
! This file is intended for use in "debugging" potential problems
! that may also be detected by the program, but may be more easily
! identified by "eye".
! This file is also intended to support software which draws a
! schematic diagram of the HVAC system.
! ===============================================================
! #Nodes,<Number of Unique Nodes>
 #Nodes,666
! <Node>,<NodeNumber>,<Node Name>,<Node Fluid Type>,<# Times Node Referenced After Definition>
 Node,1,ZONE INLET NODE_UNIT1_FRONTROW_BOTTOMFLOOR,Air,3
 Node,2,OA INLET NODE_UNIT1_FRONTROW_BOTTOMFLOOR,Air,3
 Node,3,ZONE INLET NODE_UNIT2_FRONTROW_BOTTOMFLOOR,Air,3
 Node,4,OA INLET NODE_UNIT2_FRONTROW_BOTTOMFLOOR,Air,3
 Node,5,ZONE INLET NODE_UNIT3_FRONTROW_BOTTOMFLOOR,Air,3
 Node,6,OA INLET NODE_UNIT3_FRONTROW_BOTTOMFLOOR,Air,3
 Node,7,ZONE INLET NODE_UNIT1_BACKROW_BOTTOMFLOOR,Air,3
 Node,8,OA INLET NODE_UNIT1_BACKROW_BOTTOMFLOOR,Air,3
 Node,9,ZONE INLET NODE_UNIT2_BACKROW_BOTTOMFLOOR,Air,3
 Node,10,OA INLET NODE_UNIT2_BACKROW_BOTTOMFLOOR,Air,3
 Node,11,ZONE INLET NODE_UNIT3_BACKROW_BOTTOMFLOOR,Air,3
 Node,12,OA INLET NODE_UNIT3_BACKROW_BOTTOMFLOOR,Air,3
 Node,13,ZONE INLET NODE_UNIT1_FRONTROW_MIDDLEFLOOR,Air,3
 Node,14,OA INLET NODE_UNIT1_FRONTROW_MIDDLEFLOOR,Air,3
 Node,15,ZONE INLET NODE_UNIT2_FRONTROW_MIDDLEFLOOR,Air,3
 Node,16,OA INLET NODE_UNIT2_FRONTROW_MIDDLEFLOOR,Air,3
 Node,17,ZONE INLET NODE_UNIT3_FRONTROW_MIDDLEFLOOR,Air,3
 Node,18,OA INLET NODE_UNIT3_FRONTROW_MIDDLEFLOOR,Air,3
 Node,19,ZONE INLET NODE_UNIT1_BACKROW_MIDDLEFLOOR,Air,3
 Node,20,OA INLET NODE_UNIT1_BACKROW_MIDDLEFLOOR,Air,3
 Node,21,ZONE INLET NODE_UNIT2_BACKROW_MIDDLEFLOOR,Air,3
 Node,22,OA INLET NODE_UNIT2_BACKROW_MIDDLEFLOOR,Air,3
 Node,23,ZONE INLET NODE_UNIT3_BACKROW_MIDDLEFLOOR,Air,3
 Node,24,OA INLET NODE_UNIT3_BACKROW_MIDDLEFLOOR,Air,3
 Node,25,ZONE INLET NODE_UNIT1_FRONTROW_TOPFLOOR,Air,3
 Node,26,OA INLET NODE_UNIT1_FRONTROW_TOPFLOOR,Air,3
 Node,27,ZONE INLET NODE_UNIT2_FRONTROW_TOPFLOOR,Air,3
 Node,28,OA INLET NODE_UNIT2_FRONTROW_TOPFLOOR,Air,3
 Node,29,ZONE INLET NODE_UNIT3_FRONTROW_TOPFLOOR,Air,3
 Node,30,OA INLET NODE_UNIT3_FRONTROW_TOPFLOOR,Air,3
 Node,31,ZONE INLET NODE_UNIT1_BACKROW_TOPFLOOR,Air,3
 Node,32,OA INLET NODE_UNIT1_BACKROW_TOPFLOOR,Air,3
 Node,33,ZONE INLET NODE_UNIT2_BACKROW_TOPFLOOR,Air,3
 Node,34,OA INLET NODE_UNIT2_BACKROW_TOPFLOOR,Air,3
 Node,35,ZONE INLET NODE_UNIT3_BACKROW_TOPFLOOR,Air,3
 Node,36,OA INLET NODE_UNIT3_BACKROW_TOPFLOOR,Air,3
 Node,37,AIR LOOP INLET NODE_UNIT1_FRONTROW_BOTTOMFLOOR,Air,3
 Node,38,AIR LOOP OUTLET NODE_UNIT1_FRONTROW_BOTTOMFLOOR,Air,3
 Node,39,AIR LOOP INLET NODE_UNIT2_FRONTROW_BOTTOMFLOOR,Air,3
 Node,40,AIR LOOP OUTLET NODE_UNIT2_FRONTROW_BOTTOMFLOOR,Air,3
 Node,41,AIR LOOP INLET NODE_UNIT3_FRONTROW_BOTTOMFLOOR,Air,3
 Node,42,AIR LOOP OUTLET NODE_UNIT3_FRONTROW_BOTTOMFLOOR,Air,3
 Node,43,AIR LOOP INLET NODE_UNIT1_BACKROW_BOTTOMFLOOR,Air,3
 Node,44,AIR LOOP OUTLET NODE_UNIT1_BACKROW_BOTTOMFLOOR,Air,3
 Node,45,AIR LOOP INLET NODE_UNIT2_BACKROW_BOTTOMFLOOR,Air,3
 Node,46,AIR LOOP OUTLET NODE_UNIT2_BACKROW_BOTTOMFLOOR,Air,3
 Node,47,AIR LOOP INLET NODE_UNIT3_BACKROW_BOTTOMFLOOR,Air,3
 Node,48,AIR LOOP OUTLET NODE_UNIT3_BACKROW_BOTTOMFLOOR,Air,3
 Node,49,AIR LOOP INLET NODE_UNIT1_FRONTROW_MIDDLEFLOOR,Air,3
 Node,50,AIR LOOP OUTLET NODE_UNIT1_FRONTROW_MIDDLEFLOOR,Air,3
 Node,51,AIR LOOP INLET NODE_UNIT2_FRONTROW_MIDDLEFLOOR,Air,3
 Node,52,AIR LOOP OUTLET NODE_UNIT2_FRONTROW_MIDDLEFLOOR,Air,3
 Node,53,AIR LOOP INLET NODE_UNIT3_FRONTROW_MIDDLEFLOOR,Air,3
 Node,54,AIR LOOP OUTLET NODE_UNIT3_FRONTROW_MIDDLEFLOOR,Air,3
 Node,55,AIR LOOP INLET NODE_UNIT1_BACKROW_MIDDLEFLOOR,Air,3
 Node,56,AIR LOOP OUTLET NODE_UNIT1_BACKROW_MIDDLEFLOOR,Air,3
 Node,57,AIR LOOP INLET NODE_UNIT2_BACKROW_MIDDLEFLOOR,Air,3
 Node,58,AIR LOOP OUTLET NODE_UNIT2_BACKROW_MIDDLEFLOOR,Air,3
 Node,59,AIR LOOP INLET NODE_UNIT3_BACKROW_MIDDLEFLOOR,Air,3
 Node,60,AIR LOOP OUTLET NODE_UNIT3_BACKROW_MIDDLEFLOOR,Air,3
 Node,61,AIR LOOP INLET NODE_UNIT1_FRONTROW_TOPFLOOR,Air,3
 Node,62,AIR LOOP OUTLET NODE_UNIT1_FRONTROW_TOPFLOOR,Air,3
 Node,63,AIR LOOP INLET NODE_UNIT2_FRONTROW_TOPFLOOR,Air,3
 Node,64,AIR LOOP OUTLET NODE_UNIT2_FRONTROW_TOPFLOOR,Air,3
 Node,65,AIR LOOP INLET NODE_UNIT3_FRONTROW_TOPFLOOR,Air,3
 Node,66,AIR LOOP OUTLET NODE_UNIT3_FRONTROW_TOPFLOOR,Air,3
 Node,67,AIR LOOP INLET NODE_UNIT1_BACKROW_TOPFLOOR,Air,3
 Node,68,AIR LOOP OUTLET NODE_UNIT1_BACKROW_TOPFLOOR,Air,3
 Node,69,AIR LOOP INLET NODE_UNIT2_BACKROW_TOPFLOOR,Air,3
 Node,70,AIR LOOP OUTLET NODE_UNIT2_BACKROW_TOPFLOOR,Air,3
 Node,71,AIR LOOP INLET NODE_UNIT3_BACKROW_TOPFLOOR,Air,3
 Node,72,AIR LOOP OUTLET NODE_UNIT3_BACKROW_TOPFLOOR,Air,3
 Node,73,MAINS INLET NODE_UNIT1_FRONTROW_BOTTOMFLOOR,Water,2
 Node,74,MAINS PRESSURE OUTLET NODE_UNIT1_FRONTROW_BOTTOMFLOOR,Water,1
 Node,75,DHW SUPPLY OUTLET PIPE INLET NODE_UNIT1_FRONTROW_BOTTOMFLOOR,Water,1
 Node,76,DHW SUPPLY OUTLET NODE_UNIT1_FRONTROW_BOTTOMFLOOR,Water,4
 Node,77,DHW DEMAND INLET NODE_UNIT1_FRONTROW_BOTTOMFLOOR,Water,2
 Node,78,DHW DEMAND INLET PIPE OUTLET NODE_UNIT1_FRONTROW_BOTTOMFLOOR,Water,1
 Node,79,WATER SINK INLET NODE_UNIT1_FRONTROW_BOTTOMFLOOR,Water,1
 Node,80,WATER SINK OUTLET NODE_UNIT1_FRONTROW_BOTTOMFLOOR,Water,1
 Node,81,WATER SHOWER INLET NODE_UNIT1_FRONTROW_BOTTOMFLOOR,Water,1
 Node,82,WATER SHOWER OUTLET NODE_UNIT1_FRONTROW_BOTTOMFLOOR,Water,1
 Node,83,WATER CLOTHESWASHER INLET NODE_UNIT1_FRONTROW_BOTTOMFLOOR,Water,1
 Node,84,WATER CLOTHESWASHER OUTLET NODE_UNIT1_FRONTROW_BOTTOMFLOOR,Water,1
 Node,85,WATER DISHWASHER INLET NODE_UNIT1_FRONTROW_BOTTOMFLOOR,Water,1
 Node,86,WATER DISHWASHER OUTLET NODE_UNIT1_FRONTROW_BOTTOMFLOOR,Water,1
 Node,87,WATER BATH INLET NODE_UNIT1_FRONTROW_BOTTOMFLOOR,Water,1
 Node,88,WATER BATH OUTLET NODE_UNIT1_FRONTROW_BOTTOMFLOOR,Water,1
 Node,89,MAINS MAKEUP PIPE INLET NODE_UNIT1_FRONTROW_BOTTOMFLOOR,Water,1
 Node,90,MAINS MAKEUP NODE_UNIT1_FRONTROW_BOTTOMFLOOR,Water,2
 Node,91,WATER HEATER USE INLET NODE_UNIT1_FRONTROW_BOTTOMFLOOR,Water,1
 Node,92,WATER HEATER USE OUTLET NODE_UNIT1_FRONTROW_BOTTOMFLOOR,Water,1
 Node,93,MAINS INLET NODE_UNIT2_FRONTROW_BOTTOMFLOOR,Water,2
 Node,94,MAINS PRESSURE OUTLET NODE_UNIT2_FRONTROW_BOTTOMFLOOR,Water,1
 Node,95,DHW SUPPLY OUTLET PIPE INLET NODE_UNIT2_FRONTROW_BOTTOMFLOOR,Water,1
 Node,96,DHW SUPPLY OUTLET NODE_UNIT2_FRONTROW_BOTTOMFLOOR,Water,4
 Node,97,DHW DEMAND INLET NODE_UNIT2_FRONTROW_BOTTOMFLOOR,Water,2
 Node,98,DHW DEMAND INLET PIPE OUTLET NODE_UNIT2_FRONTROW_BOTTOMFLOOR,Water,1
 Node,99,WATER SINK INLET NODE_UNIT2_FRONTROW_BOTTOMFLOOR,Water,1
 Node,100,WATER SINK OUTLET NODE_UNIT2_FRONTROW_BOTTOMFLOOR,Water,1
 Node,101,WATER SHOWER INLET NODE_UNIT2_FRONTROW_BOTTOMFLOOR,Water,1
 Node,102,WATER SHOWER OUTLET NODE_UNIT2_FRONTROW_BOTTOMFLOOR,Water,1
 Node,103,WATER CLOTHESWASHER INLET NODE_UNIT2_FRONTROW_BOTTOMFLOOR,Water,1
 Node,104,WATER CLOTHESWASHER OUTLET NODE_UNIT2_FRONTROW_BOTTOMFLOOR,Water,1
 Node,105,WATER DISHWASHER INLET NODE_UNIT2_FRONTROW_BOTTOMFLOOR,Water,1
 Node,106,WATER DISHWASHER OUTLET NODE_UNIT2_FRONTROW_BOTTOMFLOOR,Water,1
 Node,107,WATER BATH INLET NODE_UNIT2_FRONTROW_BOTTOMFLOOR,Water,1
 Node,108,WATER BATH OUTLET NODE_UNIT2_FRONTROW_BOTTOMFLOOR,Water,1
 Node,109,MAINS MAKEUP PIPE INLET NODE_UNIT2_FRONTROW_BOTTOMFLOOR,Water,1
 Node,110,MAINS MAKEUP NODE_UNIT2_FRONTROW_BOTTOMFLOOR,Water,2
 Node,111,WATER HEATER USE INLET NODE_UNIT2_FRONTROW_BOTTOMFLOOR,Water,1
 Node,112,WATER HEATER USE OUTLET NODE_UNIT2_FRONTROW_BOTTOMFLOOR,Water,1
 Node,113,MAINS INLET NODE_UNIT3_FRONTROW_BOTTOMFLOOR,Water,2
 Node,114,MAINS PRESSURE OUTLET NODE_UNIT3_FRONTROW_BOTTOMFLOOR,Water,1
 Node,115,DHW SUPPLY OUTLET PIPE INLET NODE_UNIT3_FRONTROW_BOTTOMFLOOR,Water,1
 Node,116,DHW SUPPLY OUTLET NODE_UNIT3_FRONTROW_BOTTOMFLOOR,Water,4
 Node,117,DHW DEMAND INLET NODE_UNIT3_FRONTROW_BOTTOMFLOOR,Water,2
 Node,118,DHW DEMAND INLET PIPE OUTLET NODE_UNIT3_FRONTROW_BOTTOMFLOOR,Water,1
 Node,119,WATER SINK INLET NODE_UNIT3_FRONTROW_BOTTOMFLOOR,Water,1
 Node,120,WATER SINK OUTLET NODE_UNIT3_FRONTROW_BOTTOMFLOOR,Water,1
 Node,121,WATER SHOWER INLET NODE_UNIT3_FRONTROW_BOTTOMFLOOR,Water,1
 Node,122,WATER SHOWER OUTLET NODE_UNIT3_FRONTROW_BOTTOMFLOOR,Water,1
 Node,123,WATER CLOTHESWASHER INLET NODE_UNIT3_FRONTROW_BOTTOMFLOOR,Water,1
 Node,124,WATER CLOTHESWASHER OUTLET NODE_UNIT3_FRONTROW_BOTTOMFLOOR,Water,1
 Node,125,WATER DISHWASHER INLET NODE_UNIT3_FRONTROW_BOTTOMFLOOR,Water,1
 Node,126,WATER DISHWASHER OUTLET NODE_UNIT3_FRONTROW_BOTTOMFLOOR,Water,1
 Node,127,WATER BATH INLET NODE_UNIT3_FRONTROW_BOTTOMFLOOR,Water,1
 Node,128,WATER BATH OUTLET NODE_UNIT3_FRONTROW_BOTTOMFLOOR,Water,1
 Node,129,MAINS MAKEUP PIPE INLET NODE_UNIT3_FRONTROW_BOTTOMFLOOR,Water,1
 Node,130,MAINS MAKEUP NODE_UNIT3_FRONTROW_BOTTOMFLOOR,Water,2
 Node,131,WATER HEATER USE INLET NODE_UNIT3_FRONTROW_BOTTOMFLOOR,Water,1
 Node,132,WATER HEATER USE OUTLET NODE_UNIT3_FRONTROW_BOTTOMFLOOR,Water,1
 Node,133,MAINS INLET NODE_UNIT1_BACKROW_BOTTOMFLOOR,Water,2
 Node,134,MAINS PRESSURE OUTLET NODE_UNIT1_BACKROW_BOTTOMFLOOR,Water,1
 Node,135,DHW SUPPLY OUTLET PIPE INLET NODE_UNIT1_BACKROW_BOTTOMFLOOR,Water,1
 Node,136,DHW SUPPLY OUTLET NODE_UNIT1_BACKROW_BOTTOMFLOOR,Water,4
 Node,137,DHW DEMAND INLET NODE_UNIT1_BACKROW_BOTTOMFLOOR,Water,2
 Node,138,DHW DEMAND INLET PIPE OUTLET NODE_UNIT1_BACKROW_BOTTOMFLOOR,Water,1
 Node,139,WATER SINK INLET NODE_UNIT1_BACKROW_BOTTOMFLOOR,Water,1
 Node,140,WATER SINK OUTLET NODE_UNIT1_BACKROW_BOTTOMFLOOR,Water,1
 Node,141,WATER SHOWER INLET NODE_UNIT1_BACKROW_BOTTOMFLOOR,Water,1
 Node,142,WATER SHOWER OUTLET NODE_UNIT1_BACKROW_BOTTOMFLOOR,Water,1
 Node,143,WATER CLOTHESWASHER INLET NODE_UNIT1_BACKROW_BOTTOMFLOOR,Water,1
 Node,144,WATER CLOTHESWASHER OUTLET NODE_UNIT1_BACKROW_BOTTOMFLOOR,Water,1
 Node,145,WATER DISHWASHER INLET NODE_UNIT1_BACKROW_BOTTOMFLOOR,Water,1
 Node,146,WATER DISHWASHER OUTLET NODE_UNIT1_BACKROW_BOTTOMFLOOR,Water,1
 Node,147,WATER BATH INLET NODE_UNIT1_BACKROW_BOTTOMFLOOR,Water,1
 Node,148,WATER BATH OUTLET NODE_UNIT1_BACKROW_BOTTOMFLOOR,Water,1
 Node,149,MAINS MAKEUP PIPE INLET NODE_UNIT1_BACKROW_BOTTOMFLOOR,Water,1
 Node,150,MAINS MAKEUP NODE_UNIT1_BACKROW_BOTTOMFLOOR,Water,2
 Node,151,WATER HEATER USE INLET NODE_UNIT1_BACKROW_BOTTOMFLOOR,Water,1
 Node,152,WATER HEATER USE OUTLET NODE_UNIT1_BACKROW_BOTTOMFLOOR,Water,1
 Node,153,MAINS INLET NODE_UNIT2_BACKROW_BOTTOMFLOOR,Water,2
 Node,154,MAINS PRESSURE OUTLET NODE_UNIT2_BACKROW_BOTTOMFLOOR,Water,1
 Node,155,DHW SUPPLY OUTLET PIPE INLET NODE_UNIT2_BACKROW_BOTTOMFLOOR,Water,1
 Node,156,DHW SUPPLY OUTLET NODE_UNIT2_BACKROW_BOTTOMFLOOR,Water,4
 Node,157,DHW DEMAND INLET NODE_UNIT2_BACKROW_BOTTOMFLOOR,Water,2
 Node,158,DHW DEMAND INLET PIPE OUTLET NODE_UNIT2_BACKROW_BOTTOMFLOOR,Water,1
 Node,159,WATER SINK INLET NODE_UNIT2_BACKROW_BOTTOMFLOOR,Water,1
 Node,160,WATER SINK OUTLET NODE_UNIT2_BACKROW_BOTTOMFLOOR,Water,1
 Node,161,WATER SHOWER INLET NODE_UNIT2_BACKROW_BOTTOMFLOOR,Water,1
 Node,162,WATER SHOWER OUTLET NODE_UNIT2_BACKROW_BOTTOMFLOOR,Water,1
 Node,163,WATER CLOTHESWASHER INLET NODE_UNIT2_BACKROW_BOTTOMFLOOR,Water,1
 Node,164,WATER CLOTHESWASHER OUTLET NODE_UNIT2_BACKROW_BOTTOMFLOOR,Water,1
 Node,165,WATER DISHWASHER INLET NODE_UNIT2_BACKROW_BOTTOMFLOOR,Water,1
 Node,166,WATER DISHWASHER OUTLET NODE_UNIT2_BACKROW_BOTTOMFLOOR,Water,1
 Node,167,WATER BATH INLET NODE_UNIT2_BACKROW_BOTTOMFLOOR,Water,1
 Node,168,WATER BATH OUTLET NODE_UNIT2_BACKROW_BOTTOMFLOOR,Water,1
 Node,169,MAINS MAKEUP PIPE INLET NODE_UNIT2_BACKROW_BOTTOMFLOOR,Water,1
 Node,170,MAINS MAKEUP NODE_UNIT2_BACKROW_BOTTOMFLOOR,Water,2
 Node,171,WATER HEATER USE INLET NODE_UNIT2_BACKROW_BOTTOMFLOOR,Water,1
 Node,172,WATER HEATER USE OUTLET NODE_UNIT2_BACKROW_BOTTOMFLOOR,Water,1
 Node,173,MAINS INLET NODE_UNIT3_BACKROW_BOTTOMFLOOR,Water,2
 Node,174,MAINS PRESSURE OUTLET NODE_UNIT3_BACKROW_BOTTOMFLOOR,Water,1
 Node,175,DHW SUPPLY OUTLET PIPE INLET NODE_UNIT3_BACKROW_BOTTOMFLOOR,Water,1
 Node,176,DHW SUPPLY OUTLET NODE_UNIT3_BACKROW_BOTTOMFLOOR,Water,4
 Node,177,DHW DEMAND INLET NODE_UNIT3_BACKROW_BOTTOMFLOOR,Water,2
 Node,178,DHW DEMAND INLET PIPE OUTLET NODE_UNIT3_BACKROW_BOTTOMFLOOR,Water,1
 Node,179,WATER SINK INLET NODE_UNIT3_BACKROW_BOTTOMFLOOR,Water,1
 Node,180,WATER SINK OUTLET NODE_UNIT3_BACKROW_BOTTOMFLOOR,Water,1
 Node,181,WATER SHOWER INLET NODE_UNIT3_BACKROW_BOTTOMFLOOR,Water,1
 Node,182,WATER SHOWER OUTLET NODE_UNIT3_BACKROW_BOTTOMFLOOR,Water,1
 Node,183,WATER CLOTHESWASHER INLET NODE_UNIT3_BACKROW_BOTTOMFLOOR,Water,1
 Node,184,WATER CLOTHESWASHER OUTLET NODE_UNIT3_BACKROW_BOTTOMFLOOR,Water,1
 Node,185,WATER DISHWASHER INLET NODE_UNIT3_BACKROW_BOTTOMFLOOR,Water,1
 Node,186,WATER DISHWASHER OUTLET NODE_UNIT3_BACKROW_BOTTOMFLOOR,Water,1
 Node,187,WATER BATH INLET NODE_UNIT3_BACKROW_BOTTOMFLOOR,Water,1
 Node,188,WATER BATH OUTLET NODE_UNIT3_BACKROW_BOTTOMFLOOR,Water,1
 Node,189,MAINS MAKEUP PIPE INLET NODE_UNIT3_BACKROW_BOTTOMFLOOR,Water,1
 Node,190,MAINS MAKEUP NODE_UNIT3_BACKROW_BOTTOMFLOOR,Water,2
 Node,191,WATER HEATER USE INLET NODE_UNIT3_BACKROW_BOTTOMFLOOR,Water,1
 Node,192,WATER HEATER USE OUTLET NODE_UNIT3_BACKROW_BOTTOMFLOOR,Water,1
 Node,193,MAINS INLET NODE_UNIT1_FRONTROW_MIDDLEFLOOR,Water,2
 Node,194,MAINS PRESSURE OUTLET NODE_UNIT1_FRONTROW_MIDDLEFLOOR,Water,1
 Node,195,DHW SUPPLY OUTLET PIPE INLET NODE_UNIT1_FRONTROW_MIDDLEFLOOR,Water,1
 Node,196,DHW SUPPLY OUTLET NODE_UNIT1_FRONTROW_MIDDLEFLOOR,Water,4
 Node,197,DHW DEMAND INLET NODE_UNIT1_FRONTROW_MIDDLEFLOOR,Water,2
 Node,198,DHW DEMAND INLET PIPE OUTLET NODE_UNIT1_FRONTROW_MIDDLEFLOOR,Water,1
 Node,199,WATER SINK INLET NODE_UNIT1_FRONTROW_MIDDLEFLOOR,Water,1
 Node,200,WATER SINK OUTLET NODE_UNIT1_FRONTROW_MIDDLEFLOOR,Water,1
 Node,201,WATER SHOWER INLET NODE_UNIT1_FRONTROW_MIDDLEFLOOR,Water,1
 Node,202,WATER SHOWER OUTLET NODE_UNIT1_FRONTROW_MIDDLEFLOOR,Water,1
 Node,203,WATER CLOTHESWASHER INLET NODE_UNIT1_FRONTROW_MIDDLEFLOOR,Water,1
 Node,204,WATER CLOTHESWASHER OUTLET NODE_UNIT1_FRONTROW_MIDDLEFLOOR,Water,1
 Node,205,WATER DISHWASHER INLET NODE_UNIT1_FRONTROW_MIDDLEFLOOR,Water,1
 Node,206,WATER DISHWASHER OUTLET NODE_UNIT1_FRONTROW_MIDDLEFLOOR,Water,1
 Node,207,WATER BATH INLET NODE_UNIT1_FRONTROW_MIDDLEFLOOR,Water,1
 Node,208,WATER BATH OUTLET NODE_UNIT1_FRONTROW_MIDDLEFLOOR,Water,1
 Node,209,MAINS MAKEUP PIPE INLET NODE_UNIT1_FRONTROW_MIDDLEFLOOR,Water,1
 Node,210,MAINS MAKEUP NODE_UNIT1_FRONTROW_MIDDLEFLOOR,Water,2
 Node,211,WATER HEATER USE INLET NODE_UNIT1_FRONTROW_MIDDLEFLOOR,Water,1
 Node,212,WATER HEATER USE OUTLET NODE_UNIT1_FRONTROW_MIDDLEFLOOR,Water,1
 Node,213,MAINS INLET NODE_UNIT2_FRONTROW_MIDDLEFLOOR,Water,2
 Node,214,MAINS PRESSURE OUTLET NODE_UNIT2_FRONTROW_MIDDLEFLOOR,Water,1
 Node,215,DHW SUPPLY OUTLET PIPE INLET NODE_UNIT2_FRONTROW_MIDDLEFLOOR,Water,1
 Node,216,DHW SUPPLY OUTLET NODE_UNIT2_FRONTROW_MIDDLEFLOOR,Water,4
 Node,217,DHW DEMAND INLET NODE_UNIT2_FRONTROW_MIDDLEFLOOR,Water,2
 Node,218,DHW DEMAND INLET PIPE OUTLET NODE_UNIT2_FRONTROW_MIDDLEFLOOR,Water,1
 Node,219,WATER SINK INLET NODE_UNIT2_FRONTROW_MIDDLEFLOOR,Water,1
 Node,220,WATER SINK OUTLET NODE_UNIT2_FRONTROW_MIDDLEFLOOR,Water,1
 Node,221,WATER SHOWER INLET NODE_UNIT2_FRONTROW_MIDDLEFLOOR,Water,1
 Node,222,WATER SHOWER OUTLET NODE_UNIT2_FRONTROW_MIDDLEFLOOR,Water,1
 Node,223,WATER CLOTHESWASHER INLET NODE_UNIT2_FRONTROW_MIDDLEFLOOR,Water,1
 Node,224,WATER CLOTHESWASHER OUTLET NODE_UNIT2_FRONTROW_MIDDLEFLOOR,Water,1
 Node,225,WATER DISHWASHER INLET NODE_UNIT2_FRONTROW_MIDDLEFLOOR,Water,1
 Node,226,WATER DISHWASHER OUTLET NODE_UNIT2_FRONTROW_MIDDLEFLOOR,Water,1
 Node,227,WATER BATH INLET NODE_UNIT2_FRONTROW_MIDDLEFLOOR,Water,1
 Node,228,WATER BATH OUTLET NODE_UNIT2_FRONTROW_MIDDLEFLOOR,Water,1
 Node,229,MAINS MAKEUP PIPE INLET NODE_UNIT2_FRONTROW_MIDDLEFLOOR,Water,1
 Node,230,MAINS MAKEUP NODE_UNIT2_FRONTROW_MIDDLEFLOOR,Water,2
 Node,231,WATER HEATER USE INLET NODE_UNIT2_FRONTROW_MIDDLEFLOOR,Water,1
 Node,232,WATER HEATER USE OUTLET NODE_UNIT2_FRONTROW_MIDDLEFLOOR,Water,1
 Node,233,MAINS INLET NODE_UNIT3_FRONTROW_MIDDLEFLOOR,Water,2
 Node,234,MAINS PRESSURE OUTLET NODE_UNIT3_FRONTROW_MIDDLEFLOOR,Water,1
 Node,235,DHW SUPPLY OUTLET PIPE INLET NODE_UNIT3_FRONTROW_MIDDLEFLOOR,Water,1
 Node,236,DHW SUPPLY OUTLET NODE_UNIT3_FRONTROW_MIDDLEFLOOR,Water,4
 Node,237,DHW DEMAND INLET NODE_UNIT3_FRONTROW_MIDDLEFLOOR,Water,2
 Node,238,DHW DEMAND INLET PIPE OUTLET NODE_UNIT3_FRONTROW_MIDDLEFLOOR,Water,1
 Node,239,WATER SINK INLET NODE_UNIT3_FRONTROW_MIDDLEFLOOR,Water,1
 Node,240,WATER SINK OUTLET NODE_UNIT3_FRONTROW_MIDDLEFLOOR,Water,1
 Node,241,WATER SHOWER INLET NODE_UNIT3_FRONTROW_MIDDLEFLOOR,Water,1
 Node,242,WATER SHOWER OUTLET NODE_UNIT3_FRONTROW_MIDDLEFLOOR,Water,1
 Node,243,WATER CLOTHESWASHER INLET NODE_UNIT3_FRONTROW_MIDDLEFLOOR,Water,1
 Node,244,WATER CLOTHESWASHER OUTLET NODE_UNIT3_FRONTROW_MIDDLEFLOOR,Water,1
 Node,245,WATER DISHWASHER INLET NODE_UNIT3_FRONTROW_MIDDLEFLOOR,Water,1
 Node,246,WATER DISHWASHER OUTLET NODE_UNIT3_FRONTROW_MIDDLEFLOOR,Water,1
 Node,247,WATER BATH INLET NODE_UNIT3_FRONTROW_MIDDLEFLOOR,Water,1
 Node,248,WATER BATH OUTLET NODE_UNIT3_FRONTROW_MIDDLEFLOOR,Water,1
 Node,249,MAINS MAKEUP PIPE INLET NODE_UNIT3_FRONTROW_MIDDLEFLOOR,Water,1
 Node,250,MAINS MAKEUP NODE_UNIT3_FRONTROW_MIDDLEFLOOR,Water,2
 Node,251,WATER HEATER USE INLET NODE_UNIT3_FRONTROW_MIDDLEFLOOR,Water,1
 Node,252,WATER HEATER USE OUTLET NODE_UNIT3_FRONTROW_MIDDLEFLOOR,Water,1
 Node,253,MAINS INLET NODE_UNIT1_BACKROW_MIDDLEFLOOR,Water,2
 Node,254,MAINS PRESSURE OUTLET NODE_UNIT1_BACKROW_MIDDLEFLOOR,Water,1
 Node,255,DHW SUPPLY OUTLET PIPE INLET NODE_UNIT1_BACKROW_MIDDLEFLOOR,Water,1
 Node,256,DHW SUPPLY OUTLET NODE_UNIT1_BACKROW_MIDDLEFLOOR,Water,4
 Node,257,DHW DEMAND INLET NODE_UNIT1_BACKROW_MIDDLEFLOOR,Water,2
 Node,258,DHW DEMAND INLET PIPE OUTLET NODE_UNIT1_BACKROW_MIDDLEFLOOR,Water,1
 Node,259,WATER SINK INLET NODE_UNIT1_BACKROW_MIDDLEFLOOR,Water,1
 Node,260,WATER SINK OUTLET NODE_UNIT1_BACKROW_MIDDLEFLOOR,Water,1
 Node,261,WATER SHOWER INLET NODE_UNIT1_BACKROW_MIDDLEFLOOR,Water,1
 Node,262,WATER SHOWER OUTLET NODE_UNIT1_BACKROW_MIDDLEFLOOR,Water,1
 Node,263,WATER CLOTHESWASHER INLET NODE_UNIT1_BACKROW_MIDDLEFLOOR,Water,1
 Node,264,WATER CLOTHESWASHER OUTLET NODE_UNIT1_BACKROW_MIDDLEFLOOR,Water,1
 Node,265,WATER DISHWASHER INLET NODE_UNIT1_BACKROW_MIDDLEFLOOR,Water,1
 Node,266,WATER DISHWASHER OUTLET NODE_UNIT1_BACKROW_MIDDLEFLOOR,Water,1
 Node,267,WATER BATH INLET NODE_UNIT1_BACKROW_MIDDLEFLOOR,Water,1
 Node,268,WATER BATH OUTLET NODE_UNIT1_BACKROW_MIDDLEFLOOR,Water,1
 Node,269,MAINS MAKEUP PIPE INLET NODE_UNIT1_BACKROW_MIDDLEFLOOR,Water,1
 Node,270,MAINS MAKEUP NODE_UNIT1_BACKROW_MIDDLEFLOOR,Water,2
 Node,271,WATER HEATER USE INLET NODE_UNIT1_BACKROW_MIDDLEFLOOR,Water,1
 Node,272,WATER HEATER USE OUTLET NODE_UNIT1_BACKROW_MIDDLEFLOOR,Water,1
 Node,273,MAINS INLET NODE_UNIT2_BACKROW_MIDDLEFLOOR,Water,2
 Node,274,MAINS PRESSURE OUTLET NODE_UNIT2_BACKROW_MIDDLEFLOOR,Water,1
 Node,275,DHW SUPPLY OUTLET PIPE INLET NODE_UNIT2_BACKROW_MIDDLEFLOOR,Water,1
 Node,276,DHW SUPPLY OUTLET NODE_UNIT2_BACKROW_MIDDLEFLOOR,Water,4
 Node,277,DHW DEMAND INLET NODE_UNIT2_BACKROW_MIDDLEFLOOR,Water,2
 Node,278,DHW DEMAND INLET PIPE OUTLET NODE_UNIT2_BACKROW_MIDDLEFLOOR,Water,1
 Node,279,WATER SINK INLET NODE_UNIT2_BACKROW_MIDDLEFLOOR,Water,1
 Node,280,WATER SINK OUTLET NODE_UNIT2_BACKROW_MIDDLEFLOOR,Water,1
 Node,281,WATER SHOWER INLET NODE_UNIT2_BACKROW_MIDDLEFLOOR,Water,1
 Node,282,WATER SHOWER OUTLET NODE_UNIT2_BACKROW_MIDDLEFLOOR,Water,1
 Node,283,WATER CLOTHESWASHER INLET NODE_UNIT2_BACKROW_MIDDLEFLOOR,Water,1
 Node,284,WATER CLOTHESWASHER OUTLET NODE_UNIT2_BACKROW_MIDDLEFLOOR,Water,1
 Node,285,WATER DISHWASHER INLET NODE_UNIT2_BACKROW_MIDDLEFLOOR,Water,1
 Node,286,WATER DISHWASHER OUTLET NODE_UNIT2_BACKROW_MIDDLEFLOOR,Water,1
 Node,287,WATER BATH INLET NODE_UNIT2_BACKROW_MIDDLEFLOOR,Water,1
 Node,288,WATER BATH OUTLET NODE_UNIT2_BACKROW_MIDDLEFLOOR,Water,1
 Node,289,MAINS MAKEUP PIPE INLET NODE_UNIT2_BACKROW_MIDDLEFLOOR,Water,1
 Node,290,MAINS MAKEUP NODE_UNIT2_BACKROW_MIDDLEFLOOR,Water,2
 Node,291,WATER HEATER USE INLET NODE_UNIT2_BACKROW_MIDDLEFLOOR,Water,1
 Node,292,WATER HEATER USE OUTLET NODE_UNIT2_BACKROW_MIDDLEFLOOR,Water,1
 Node,293,MAINS INLET NODE_UNIT3_BACKROW_MIDDLEFLOOR,Water,2
 Node,294,MAINS PRESSURE OUTLET NODE_UNIT3_BACKROW_MIDDLEFLOOR,Water,1
 Node,295,DHW SUPPLY OUTLET PIPE INLET NODE_UNIT3_BACKROW_MIDDLEFLOOR,Water,1
 Node,296,DHW SUPPLY OUTLET NODE_UNIT3_BACKROW_MIDDLEFLOOR,Water,4
 Node,297,DHW DEMAND INLET NODE_UNIT3_BACKROW_MIDDLEFLOOR,Water,2
 Node,298,DHW DEMAND INLET PIPE OUTLET NODE_UNIT3_BACKROW_MIDDLEFLOOR,Water,1
 Node,299,WATER SINK INLET NODE_UNIT3_BACKROW_MIDDLEFLOOR,Water,1
 Node,300,WATER SINK OUTLET NODE_UNIT3_BACKROW_MIDDLEFLOOR,Water,1
 Node,301,WATER SHOWER INLET NODE_UNIT3_BACKROW_MIDDLEFLOOR,Water,1
 Node,302,WATER SHOWER OUTLET NODE_UNIT3_BACKROW_MIDDLEFLOOR,Water,1
 Node,303,WATER CLOTHESWASHER INLET NODE_UNIT3_BACKROW_MIDDLEFLOOR,Water,1
 Node,304,WATER CLOTHESWASHER OUTLET NODE_UNIT3_BACKROW_MIDDLEFLOOR,Water,1
 Node,305,WATER DISHWASHER INLET NODE_UNIT3_BACKROW_MIDDLEFLOOR,Water,1
 Node,306,WATER DISHWASHER OUTLET NODE_UNIT3_BACKROW_MIDDLEFLOOR,Water,1
 Node,307,WATER BATH INLET NODE_UNIT3_BACKROW_MIDDLEFLOOR,Water,1
 Node,308,WATER BATH OUTLET NODE_UNIT3_BACKROW_MIDDLEFLOOR,Water,1
 Node,309,MAINS MAKEUP PIPE INLET NODE_UNIT3_BACKROW_MIDDLEFLOOR,Water,1
 Node,310,MAINS MAKEUP NODE_UNIT3_BACKROW_MIDDLEFLOOR,Water,2
 Node,311,WATER HEATER USE INLET NODE_UNIT3_BACKROW_MIDDLEFLOOR,Water,1
 Node,312,WATER HEATER USE OUTLET NODE_UNIT3_BACKROW_MIDDLEFLOOR,Water,1
 Node,313,MAINS INLET NODE_UNIT1_FRONTROW_TOPFLOOR,Water,2
 Node,314,MAINS PRESSURE OUTLET NODE_UNIT1_FRONTROW_TOPFLOOR,Water,1
 Node,315,DHW SUPPLY OUTLET PIPE INLET NODE_UNIT1_FRONTROW_TOPFLOOR,Water,1
 Node,316,DHW SUPPLY OUTLET NODE_UNIT1_FRONTROW_TOPFLOOR,Water,4
 Node,317,DHW DEMAND INLET NODE_UNIT1_FRONTROW_TOPFLOOR,Water,2
 Node,318,DHW DEMAND INLET PIPE OUTLET NODE_UNIT1_FRONTROW_TOPFLOOR,Water,1
 Node,319,WATER SINK INLET NODE_UNIT1_FRONTROW_TOPFLOOR,Water,1
 Node,320,WATER SINK OUTLET NODE_UNIT1_FRONTROW_TOPFLOOR,Water,1
 Node,321,WATER SHOWER INLET NODE_UNIT1_FRONTROW_TOPFLOOR,Water,1
 Node,322,WATER SHOWER OUTLET NODE_UNIT1_FRONTROW_TOPFLOOR,Water,1
 Node,323,WATER CLOTHESWASHER INLET NODE_UNIT1_FRONTROW_TOPFLOOR,Water,1
 Node,324,WATER CLOTHESWASHER OUTLET NODE_UNIT1_FRONTROW_TOPFLOOR,Water,1
 Node,325,WATER DISHWASHER INLET NODE_UNIT1_FRONTROW_TOPFLOOR,Water,1
 Node,326,WATER DISHWASHER OUTLET NODE_UNIT1_FRONTROW_TOPFLOOR,Water,1
 Node,327,WATER BATH INLET NODE_UNIT1_FRONTROW_TOPFLOOR,Water,1
 Node,328,WATER BATH OUTLET NODE_UNIT1_FRONTROW_TOPFLOOR,Water,1
 Node,329,MAINS MAKEUP PIPE INLET NODE_UNIT1_FRONTROW_TOPFLOOR,Water,1
 Node,330,MAINS MAKEUP NODE_UNIT1_FRONTROW_TOPFLOOR,Water,2
 Node,331,WATER HEATER USE INLET NODE_UNIT1_FRONTROW_TOPFLOOR,Water,1
 Node,332,WATER HEATER USE OUTLET NODE_UNIT1_FRONTROW_TOPFLOOR,Water,1
 Node,333,MAINS INLET NODE_UNIT2_FRONTROW_TOPFLOOR,Water,2
 Node,334,MAINS PRESSURE OUTLET NODE_UNIT2_FRONTROW_TOPFLOOR,Water,1
 Node,335,DHW SUPPLY OUTLET PIPE INLET NODE_UNIT2_FRONTROW_TOPFLOOR,Water,1
 Node,336,DHW SUPPLY OUTLET NODE_UNIT2_FRONTROW_TOPFLOOR,Water,4
 Node,337,DHW DEMAND INLET NODE_UNIT2_FRONTROW_TOPFLOOR,Water,2
 Node,338,DHW DEMAND INLET PIPE OUTLET NODE_UNIT2_FRONTROW_TOPFLOOR,Water,1
 Node,339,WATER SINK INLET NODE_UNIT2_FRONTROW_TOPFLOOR,Water,1
 Node,340,WATER SINK OUTLET NODE_UNIT2_FRONTROW_TOPFLOOR,Water,1
 Node,341,WATER SHOWER INLET NODE_UNIT2_FRONTROW_TOPFLOOR,Water,1
 Node,342,WATER SHOWER OUTLET NODE_UNIT2_FRONTROW_TOPFLOOR,Water,1
 Node,343,WATER CLOTHESWASHER INLET NODE_UNIT2_FRONTROW_TOPFLOOR,Water,1
 Node,344,WATER CLOTHESWASHER OUTLET NODE_UNIT2_FRONTROW_TOPFLOOR,Water,1
 Node,345,WATER DISHWASHER INLET NODE_UNIT2_FRONTROW_TOPFLOOR,Water,1
 Node,346,WATER DISHWASHER OUTLET NODE_UNIT2_FRONTROW_TOPFLOOR,Water,1
 Node,347,WATER BATH INLET NODE_UNIT2_FRONTROW_TOPFLOOR,Water,1
 Node,348,WATER BATH OUTLET NODE_UNIT2_FRONTROW_TOPFLOOR,Water,1
 Node,349,MAINS MAKEUP PIPE INLET NODE_UNIT2_FRONTROW_TOPFLOOR,Water,1
 Node,350,MAINS MAKEUP NODE_UNIT2_FRONTROW_TOPFLOOR,Water,2
 Node,351,WATER HEATER USE INLET NODE_UNIT2_FRONTROW_TOPFLOOR,Water,1
 Node,352,WATER HEATER USE OUTLET NODE_UNIT2_FRONTROW_TOPFLOOR,Water,1
 Node,353,MAINS INLET NODE_UNIT3_FRONTROW_TOPFLOOR,Water,2
 Node,354,MAINS PRESSURE OUTLET NODE_UNIT3_FRONTROW_TOPFLOOR,Water,1
 Node,355,DHW SUPPLY OUTLET PIPE INLET NODE_UNIT3_FRONTROW_TOPFLOOR,Water,1
 Node,356,DHW SUPPLY OUTLET NODE_UNIT3_FRONTROW_TOPFLOOR,Water,4
 Node,357,DHW DEMAND INLET NODE_UNIT3_FRONTROW_TOPFLOOR,Water,2
 Node,358,DHW DEMAND INLET PIPE OUTLET NODE_UNIT3_FRONTROW_TOPFLOOR,Water,1
 Node,359,WATER SINK INLET NODE_UNIT3_FRONTROW_TOPFLOOR,Water,1
 Node,360,WATER SINK OUTLET NODE_UNIT3_FRONTROW_TOPFLOOR,Water,1
 Node,361,WATER SHOWER INLET NODE_UNIT3_FRONTROW_TOPFLOOR,Water,1
 Node,362,WATER SHOWER OUTLET NODE_UNIT3_FRONTROW_TOPFLOOR,Water,1
 Node,363,WATER CLOTHESWASHER INLET NODE_UNIT3_FRONTROW_TOPFLOOR,Water,1
 Node,364,WATER CLOTHESWASHER OUTLET NODE_UNIT3_FRONTROW_TOPFLOOR,Water,1
 Node,365,WATER DISHWASHER INLET NODE_UNIT3_FRONTROW_TOPFLOOR,Water,1
 Node,366,WATER DISHWASHER OUTLET NODE_UNIT3_FRONTROW_TOPFLOOR,Water,1
 Node,367,WATER BATH INLET NODE_UNIT3_FRONTROW_TOPFLOOR,Water,1
 Node,368,WATER BATH OUTLET NODE_UNIT3_FRONTROW_TOPFLOOR,Water,1
 Node,369,MAINS MAKEUP PIPE INLET NODE_UNIT3_FRONTROW_TOPFLOOR,Water,1
 Node,370,MAINS MAKEUP NODE_UNIT3_FRONTROW_TOPFLOOR,Water,2
 Node,371,WATER HEATER USE INLET NODE_UNIT3_FRONTROW_TOPFLOOR,Water,1
 Node,372,WATER HEATER USE OUTLET NODE_UNIT3_FRONTROW_TOPFLOOR,Water,1
 Node,373,MAINS INLET NODE_UNIT1_BACKROW_TOPFLOOR,Water,2
 Node,374,MAINS PRESSURE OUTLET NODE_UNIT1_BACKROW_TOPFLOOR,Water,1
 Node,375,DHW SUPPLY OUTLET PIPE INLET NODE_UNIT1_BACKROW_TOPFLOOR,Water,1
 Node,376,DHW SUPPLY OUTLET NODE_UNIT1_BACKROW_TOPFLOOR,Water,4
 Node,377,DHW DEMAND INLET NODE_UNIT1_BACKROW_TOPFLOOR,Water,2
 Node,378,DHW DEMAND INLET PIPE OUTLET NODE_UNIT1_BACKROW_TOPFLOOR,Water,1
 Node,379,WATER SINK INLET NODE_UNIT1_BACKROW_TOPFLOOR,Water,1
 Node,380,WATER SINK OUTLET NODE_UNIT1_BACKROW_TOPFLOOR,Water,1
 Node,381,WATER SHOWER INLET NODE_UNIT1_BACKROW_TOPFLOOR,Water,1
 Node,382,WATER SHOWER OUTLET NODE_UNIT1_BACKROW_TOPFLOOR,Water,1
 Node,383,WATER CLOTHESWASHER INLET NODE_UNIT1_BACKROW_TOPFLOOR,Water,1
 Node,384,WATER CLOTHESWASHER OUTLET NODE_UNIT1_BACKROW_TOPFLOOR,Water,1
 Node,385,WATER DISHWASHER INLET NODE_UNIT1_BACKROW_TOPFLOOR,Water,1
 Node,386,WATER DISHWASHER OUTLET NODE_UNIT1_BACKROW_TOPFLOOR,Water,1
 Node,387,WATER BATH INLET NODE_UNIT1_BACKROW_TOPFLOOR,Water,1
 Node,388,WATER BATH OUTLET NODE_UNIT1_BACKROW_TOPFLOOR,Water,1
 Node,389,MAINS MAKEUP PIPE INLET NODE_UNIT1_BACKROW_TOPFLOOR,Water,1
 Node,390,MAINS MAKEUP NODE_UNIT1_BACKROW_TOPFLOOR,Water,2
 Node,391,WATER HEATER USE INLET NODE_UNIT1_BACKROW_TOPFLOOR,Water,1
 Node,392,WATER HEATER USE OUTLET NODE_UNIT1_BACKROW_TOPFLOOR,Water,1
 Node,393,MAINS INLET NODE_UNIT2_BACKROW_TOPFLOOR,Water,2
 Node,394,MAINS PRESSURE OUTLET NODE_UNIT2_BACKROW_TOPFLOOR,Water,1
 Node,395,DHW SUPPLY OUTLET PIPE INLET NODE_UNIT2_BACKROW_TOPFLOOR,Water,1
 Node,396,DHW SUPPLY OUTLET NODE_UNIT2_BACKROW_TOPFLOOR,Water,4
 Node,397,DHW DEMAND INLET NODE_UNIT2_BACKROW_TOPFLOOR,Water,2
 Node,398,DHW DEMAND INLET PIPE OUTLET NODE_UNIT2_BACKROW_TOPFLOOR,Water,1
 Node,399,WATER SINK INLET NODE_UNIT2_BACKROW_TOPFLOOR,Water,1
 Node,400,WATER SINK OUTLET NODE_UNIT2_BACKROW_TOPFLOOR,Water,1
 Node,401,WATER SHOWER INLET NODE_UNIT2_BACKROW_TOPFLOOR,Water,1
 Node,402,WATER SHOWER OUTLET NODE_UNIT2_BACKROW_TOPFLOOR,Water,1
 Node,403,WATER CLOTHESWASHER INLET NODE_UNIT2_BACKROW_TOPFLOOR,Water,1
 Node,404,WATER CLOTHESWASHER OUTLET NODE_UNIT2_BACKROW_TOPFLOOR,Water,1
 Node,405,WATER DISHWASHER INLET NODE_UNIT2_BACKROW_TOPFLOOR,Water,1
 Node,406,WATER DISHWASHER OUTLET NODE_UNIT2_BACKROW_TOPFLOOR,Water,1
 Node,407,WATER BATH INLET NODE_UNIT2_BACKROW_TOPFLOOR,Water,1
 Node,408,WATER BATH OUTLET NODE_UNIT2_BACKROW_TOPFLOOR,Water,1
 Node,409,MAINS MAKEUP PIPE INLET NODE_UNIT2_BACKROW_TOPFLOOR,Water,1
 Node,410,MAINS MAKEUP NODE_UNIT2_BACKROW_TOPFLOOR,Water,2
 Node,411,WATER HEATER USE INLET NODE_UNIT2_BACKROW_TOPFLOOR,Water,1
 Node,412,WATER HEATER USE OUTLET NODE_UNIT2_BACKROW_TOPFLOOR,Water,1
 Node,413,MAINS INLET NODE_UNIT3_BACKROW_TOPFLOOR,Water,2
 Node,414,MAINS PRESSURE OUTLET NODE_UNIT3_BACKROW_TOPFLOOR,Water,1
 Node,415,DHW SUPPLY OUTLET PIPE INLET NODE_UNIT3_BACKROW_TOPFLOOR,Water,1
 Node,416,DHW SUPPLY OUTLET NODE_UNIT3_BACKROW_TOPFLOOR,Water,4
 Node,417,DHW DEMAND INLET NODE_UNIT3_BACKROW_TOPFLOOR,Water,2
 Node,418,DHW DEMAND INLET PIPE OUTLET NODE_UNIT3_BACKROW_TOPFLOOR,Water,1
 Node,419,WATER SINK INLET NODE_UNIT3_BACKROW_TOPFLOOR,Water,1
 Node,420,WATER SINK OUTLET NODE_UNIT3_BACKROW_TOPFLOOR,Water,1
 Node,421,WATER SHOWER INLET NODE_UNIT3_BACKROW_TOPFLOOR,Water,1
 Node,422,WATER SHOWER OUTLET NODE_UNIT3_BACKROW_TOPFLOOR,Water,1
 Node,423,WATER CLOTHESWASHER INLET NODE_UNIT3_BACKROW_TOPFLOOR,Water,1
 Node,424,WATER CLOTHESWASHER OUTLET NODE_UNIT3_BACKROW_TOPFLOOR,Water,1
 Node,425,WATER DISHWASHER INLET NODE_UNIT3_BACKROW_TOPFLOOR,Water,1
 Node,426,WATER DISHWASHER OUTLET NODE_UNIT3_BACKROW_TOPFLOOR,Water,1
 Node,427,WATER BATH INLET NODE_UNIT3_BACKROW_TOPFLOOR,Water,1
 Node,428,WATER BATH OUTLET NODE_UNIT3_BACKROW_TOPFLOOR,Water,1
 Node,429,MAINS MAKEUP PIPE INLET NODE_UNIT3_BACKROW_TOPFLOOR,Water,1
 Node,430,MAINS MAKEUP NODE_UNIT3_BACKROW_TOPFLOOR,Water,2
 Node,431,WATER HEATER USE INLET NODE_UNIT3_BACKROW_TOPFLOOR,Water,1
 Node,432,WATER HEATER USE OUTLET NODE_UNIT3_BACKROW_TOPFLOOR,Water,1
 Node,433,ZONE NODE_UNIT1_FRONTROW_BOTTOMFLOOR,Air,0
 Node,434,ZONE EXHAUST NODE_UNIT1_FRONTROW_BOTTOMFLOOR,Air,2
 Node,435,ZONE OUTLET NODE_UNIT1_FRONTROW_BOTTOMFLOOR,Air,1
 Node,436,ZONE NODE_UNIT2_FRONTROW_BOTTOMFLOOR,Air,0
 Node,437,ZONE EXHAUST NODE_UNIT2_FRONTROW_BOTTOMFLOOR,Air,2
 Node,438,ZONE OUTLET NODE_UNIT2_FRONTROW_BOTTOMFLOOR,Air,1
 Node,439,ZONE NODE_UNIT3_FRONTROW_BOTTOMFLOOR,Air,0
 Node,440,ZONE EXHAUST NODE_UNIT3_FRONTROW_BOTTOMFLOOR,Air,2
 Node,441,ZONE OUTLET NODE_UNIT3_FRONTROW_BOTTOMFLOOR,Air,1
 Node,442,ZONE NODE_UNIT1_BACKROW_BOTTOMFLOOR,Air,0
 Node,443,ZONE EXHAUST NODE_UNIT1_BACKROW_BOTTOMFLOOR,Air,2
 Node,444,ZONE OUTLET NODE_UNIT1_BACKROW_BOTTOMFLOOR,Air,1
 Node,445,ZONE NODE_UNIT2_BACKROW_BOTTOMFLOOR,Air,0
 Node,446,ZONE EXHAUST NODE_UNIT2_BACKROW_BOTTOMFLOOR,Air,2
 Node,447,ZONE OUTLET NODE_UNIT2_BACKROW_BOTTOMFLOOR,Air,1
 Node,448,ZONE NODE_UNIT3_BACKROW_BOTTOMFLOOR,Air,0
 Node,449,ZONE EXHAUST NODE_UNIT3_BACKROW_BOTTOMFLOOR,Air,2
 Node,450,ZONE OUTLET NODE_UNIT3_BACKROW_BOTTOMFLOOR,Air,1
 Node,451,ZONE NODE_UNIT1_FRONTROW_MIDDLEFLOOR,Air,0
 Node,452,ZONE EXHAUST NODE_UNIT1_FRONTROW_MIDDLEFLOOR,Air,2
 Node,453,ZONE OUTLET NODE_UNIT1_FRONTROW_MIDDLEFLOOR,Air,1
 Node,454,ZONE NODE_UNIT2_FRONTROW_MIDDLEFLOOR,Air,0
 Node,455,ZONE EXHAUST NODE_UNIT2_FRONTROW_MIDDLEFLOOR,Air,2
 Node,456,ZONE OUTLET NODE_UNIT2_FRONTROW_MIDDLEFLOOR,Air,1
 Node,457,ZONE NODE_UNIT3_FRONTROW_MIDDLEFLOOR,Air,0
 Node,458,ZONE EXHAUST NODE_UNIT3_FRONTROW_MIDDLEFLOOR,Air,2
 Node,459,ZONE OUTLET NODE_UNIT3_FRONTROW_MIDDLEFLOOR,Air,1
 Node,460,ZONE NODE_UNIT1_BACKROW_MIDDLEFLOOR,Air,0
 Node,461,ZONE EXHAUST NODE_UNIT1_BACKROW_MIDDLEFLOOR,Air,2
 Node,462,ZONE OUTLET NODE_UNIT1_BACKROW_MIDDLEFLOOR,Air,1
 Node,463,ZONE NODE_UNIT2_BACKROW_MIDDLEFLOOR,Air,0
 Node,464,ZONE EXHAUST NODE_UNIT2_BACKROW_MIDDLEFLOOR,Air,2
 Node,465,ZONE OUTLET NODE_UNIT2_BACKROW_MIDDLEFLOOR,Air,1
 Node,466,ZONE NODE_UNIT3_BACKROW_MIDDLEFLOOR,Air,0
 Node,467,ZONE EXHAUST NODE_UNIT3_BACKROW_MIDDLEFLOOR,Air,2
 Node,468,ZONE OUTLET NODE_UNIT3_BACKROW_MIDDLEFLOOR,Air,1
 Node,469,ZONE NODE_UNIT1_FRONTROW_TOPFLOOR,Air,0
 Node,470,ZONE EXHAUST NODE_UNIT1_FRONTROW_TOPFLOOR,Air,2
 Node,471,ZONE OUTLET NODE_UNIT1_FRONTROW_TOPFLOOR,Air,1
 Node,472,ZONE NODE_UNIT2_FRONTROW_TOPFLOOR,Air,0
 Node,473,ZONE EXHAUST NODE_UNIT2_FRONTROW_TOPFLOOR,Air,2
 Node,474,ZONE OUTLET NODE_UNIT2_FRONTROW_TOPFLOOR,Air,1
 Node,475,ZONE NODE_UNIT3_FRONTROW_TOPFLOOR,Air,0
 Node,476,ZONE EXHAUST NODE_UNIT3_FRONTROW_TOPFLOOR,Air,2
 Node,477,ZONE OUTLET NODE_UNIT3_FRONTROW_TOPFLOOR,Air,1
 Node,478,ZONE NODE_UNIT1_BACKROW_TOPFLOOR,Air,0
 Node,479,ZONE EXHAUST NODE_UNIT1_BACKROW_TOPFLOOR,Air,2
 Node,480,ZONE OUTLET NODE_UNIT1_BACKROW_TOPFLOOR,Air,1
 Node,481,ZONE NODE_UNIT2_BACKROW_TOPFLOOR,Air,0
 Node,482,ZONE EXHAUST NODE_UNIT2_BACKROW_TOPFLOOR,Air,2
 Node,483,ZONE OUTLET NODE_UNIT2_BACKROW_TOPFLOOR,Air,1
 Node,484,ZONE NODE_UNIT3_BACKROW_TOPFLOOR,Air,0
 Node,485,ZONE EXHAUST NODE_UNIT3_BACKROW_TOPFLOOR,Air,2
 Node,486,ZONE OUTLET NODE_UNIT3_BACKROW_TOPFLOOR,Air,1
 Node,487,ZONE EQUIPMENT INLET NODE_UNIT1_FRONTROW_BOTTOMFLOOR,Air,2
 Node,488,ZONE EQUIPMENT INLET NODE_UNIT2_FRONTROW_BOTTOMFLOOR,Air,2
 Node,489,ZONE EQUIPMENT INLET NODE_UNIT3_FRONTROW_BOTTOMFLOOR,Air,2
 Node,490,ZONE EQUIPMENT INLET NODE_UNIT1_BACKROW_BOTTOMFLOOR,Air,2
 Node,491,ZONE EQUIPMENT INLET NODE_UNIT2_BACKROW_BOTTOMFLOOR,Air,2
 Node,492,ZONE EQUIPMENT INLET NODE_UNIT3_BACKROW_BOTTOMFLOOR,Air,2
 Node,493,ZONE EQUIPMENT INLET NODE_UNIT1_FRONTROW_MIDDLEFLOOR,Air,2
 Node,494,ZONE EQUIPMENT INLET NODE_UNIT2_FRONTROW_MIDDLEFLOOR,Air,2
 Node,495,ZONE EQUIPMENT INLET NODE_UNIT3_FRONTROW_MIDDLEFLOOR,Air,2
 Node,496,ZONE EQUIPMENT INLET NODE_UNIT1_BACKROW_MIDDLEFLOOR,Air,2
 Node,497,ZONE EQUIPMENT INLET NODE_UNIT2_BACKROW_MIDDLEFLOOR,Air,2
 Node,498,ZONE EQUIPMENT INLET NODE_UNIT3_BACKROW_MIDDLEFLOOR,Air,2
 Node,499,ZONE EQUIPMENT INLET NODE_UNIT1_FRONTROW_TOPFLOOR,Air,2
 Node,500,ZONE EQUIPMENT INLET NODE_UNIT2_FRONTROW_TOPFLOOR,Air,2
 Node,501,ZONE EQUIPMENT INLET NODE_UNIT3_FRONTROW_TOPFLOOR,Air,2
 Node,502,ZONE EQUIPMENT INLET NODE_UNIT1_BACKROW_TOPFLOOR,Air,2
 Node,503,ZONE EQUIPMENT INLET NODE_UNIT2_BACKROW_TOPFLOOR,Air,2
 Node,504,ZONE EQUIPMENT INLET NODE_UNIT3_BACKROW_TOPFLOOR,Air,2
 Node,505,RETURN AIR MIXER OUTLET_UNIT1_FRONTROW_BOTTOMFLOOR,Air,2
 Node,506,RETURN AIR MIXER OUTLET_UNIT2_FRONTROW_BOTTOMFLOOR,Air,2
 Node,507,RETURN AIR MIXER OUTLET_UNIT3_FRONTROW_BOTTOMFLOOR,Air,2
 Node,508,RETURN AIR MIXER OUTLET_UNIT1_BACKROW_BOTTOMFLOOR,Air,2
 Node,509,RETURN AIR MIXER OUTLET_UNIT2_BACKROW_BOTTOMFLOOR,Air,2
 Node,510,RETURN AIR MIXER OUTLET_UNIT3_BACKROW_BOTTOMFLOOR,Air,2
 Node,511,RETURN AIR MIXER OUTLET_UNIT1_FRONTROW_MIDDLEFLOOR,Air,2
 Node,512,RETURN AIR MIXER OUTLET_UNIT2_FRONTROW_MIDDLEFLOOR,Air,2
 Node,513,RETURN AIR MIXER OUTLET_UNIT3_FRONTROW_MIDDLEFLOOR,Air,2
 Node,514,RETURN AIR MIXER OUTLET_UNIT1_BACKROW_MIDDLEFLOOR,Air,2
 Node,515,RETURN AIR MIXER OUTLET_UNIT2_BACKROW_MIDDLEFLOOR,Air,2
 Node,516,RETURN AIR MIXER OUTLET_UNIT3_BACKROW_MIDDLEFLOOR,Air,2
 Node,517,RETURN AIR MIXER OUTLET_UNIT1_FRONTROW_TOPFLOOR,Air,2
 Node,518,RETURN AIR MIXER OUTLET_UNIT2_FRONTROW_TOPFLOOR,Air,2
 Node,519,RETURN AIR MIXER OUTLET_UNIT3_FRONTROW_TOPFLOOR,Air,2
 Node,520,RETURN AIR MIXER OUTLET_UNIT1_BACKROW_TOPFLOOR,Air,2
 Node,521,RETURN AIR MIXER OUTLET_UNIT2_BACKROW_TOPFLOOR,Air,2
 Node,522,RETURN AIR MIXER OUTLET_UNIT3_BACKROW_TOPFLOOR,Air,2
 Node,523,OUTDOOR AIR NODE_UNIT1_FRONTROW_BOTTOMFLOOR,Air,2
 Node,524,OUTDOOR AIR NODE_UNIT2_FRONTROW_BOTTOMFLOOR,Air,2
 Node,525,OUTDOOR AIR NODE_UNIT3_FRONTROW_BOTTOMFLOOR,Air,2
 Node,526,OUTDOOR AIR NODE_UNIT1_BACKROW_BOTTOMFLOOR,Air,2
 Node,527,OUTDOOR AIR NODE_UNIT2_BACKROW_BOTTOMFLOOR,Air,2
 Node,528,OUTDOOR AIR NODE_UNIT3_BACKROW_BOTTOMFLOOR,Air,2
 Node,529,OUTDOOR AIR NODE_UNIT1_FRONTROW_MIDDLEFLOOR,Air,2
 Node,530,OUTDOOR AIR NODE_UNIT2_FRONTROW_MIDDLEFLOOR,Air,2
 Node,531,OUTDOOR AIR NODE_UNIT3_FRONTROW_MIDDLEFLOOR,Air,2
 Node,532,OUTDOOR AIR NODE_UNIT1_BACKROW_MIDDLEFLOOR,Air,2
 Node,533,OUTDOOR AIR NODE_UNIT2_BACKROW_MIDDLEFLOOR,Air,2
 Node,534,OUTDOOR AIR NODE_UNIT3_BACKROW_MIDDLEFLOOR,Air,2
 Node,535,OUTDOOR AIR NODE_UNIT1_FRONTROW_TOPFLOOR,Air,2
 Node,536,OUTDOOR AIR NODE_UNIT2_FRONTROW_TOPFLOOR,Air,2
 Node,537,OUTDOOR AIR NODE_UNIT3_FRONTROW_TOPFLOOR,Air,2
 Node,538,OUTDOOR AIR NODE_UNIT1_BACKROW_TOPFLOOR,Air,2
 Node,539,OUTDOOR AIR NODE_UNIT2_BACKROW_TOPFLOOR,Air,2
 Node,540,OUTDOOR AIR NODE_UNIT3_BACKROW_TOPFLOOR,Air,2
 Node,541,OUTSIDE AIR INLET NODE_UNIT1_FRONTROW_BOTTOMFLOOR,Air,0
 Node,542,OUTSIDE AIR INLET NODE_UNIT2_FRONTROW_BOTTOMFLOOR,Air,0
 Node,543,OUTSIDE AIR INLET NODE_UNIT3_FRONTROW_BOTTOMFLOOR,Air,0
 Node,544,OUTSIDE AIR INLET NODE_UNIT1_BACKROW_BOTTOMFLOOR,Air,0
 Node,545,OUTSIDE AIR INLET NODE_UNIT2_BACKROW_BOTTOMFLOOR,Air,0
 Node,546,OUTSIDE AIR INLET NODE_UNIT3_BACKROW_BOTTOMFLOOR,Air,0
 Node,547,OUTSIDE AIR INLET NODE_UNIT1_FRONTROW_MIDDLEFLOOR,Air,0
 Node,548,OUTSIDE AIR INLET NODE_UNIT2_FRONTROW_MIDDLEFLOOR,Air,0
 Node,549,OUTSIDE AIR INLET NODE_UNIT3_FRONTROW_MIDDLEFLOOR,Air,0
 Node,550,OUTSIDE AIR INLET NODE_UNIT1_BACKROW_MIDDLEFLOOR,Air,0
 Node,551,OUTSIDE AIR INLET NODE_UNIT2_BACKROW_MIDDLEFLOOR,Air,0
 Node,552,OUTSIDE AIR INLET NODE_UNIT3_BACKROW_MIDDLEFLOOR,Air,0
 Node,553,OUTSIDE AIR INLET NODE_UNIT1_FRONTROW_TOPFLOOR,Air,0
 Node,554,OUTSIDE AIR INLET NODE_UNIT2_FRONTROW_TOPFLOOR,Air,0
 Node,555,OUTSIDE AIR INLET NODE_UNIT3_FRONTROW_TOPFLOOR,Air,0
 Node,556,OUTSIDE AIR INLET NODE_UNIT1_BACKROW_TOPFLOOR,Air,0
 Node,557,OUTSIDE AIR INLET NODE_UNIT2_BACKROW_TOPFLOOR,Air,0
 Node,558,OUTSIDE AIR INLET NODE_UNIT3_BACKROW_TOPFLOOR,Air,0
 Node,559,ZONE INLET NODE_UNIT1_FRONTROW_BOTTOMFLOOR ATINLET,Air,1
 Node,560,ZONE INLET NODE_UNIT2_FRONTROW_BOTTOMFLOOR ATINLET,Air,1
 Node,561,ZONE INLET NODE_UNIT3_FRONTROW_BOTTOMFLOOR ATINLET,Air,1
 Node,562,ZONE INLET NODE_UNIT1_BACKROW_BOTTOMFLOOR ATINLET,Air,1
 Node,563,ZONE INLET NODE_UNIT2_BACKROW_BOTTOMFLOOR ATINLET,Air,1
 Node,564,ZONE INLET NODE_UNIT3_BACKROW_BOTTOMFLOOR ATINLET,Air,1
 Node,565,ZONE INLET NODE_UNIT1_FRONTROW_MIDDLEFLOOR ATINLET,Air,1
 Node,566,ZONE INLET NODE_UNIT2_FRONTROW_MIDDLEFLOOR ATINLET,Air,1
 Node,567,ZONE INLET NODE_UNIT3_FRONTROW_MIDDLEFLOOR ATINLET,Air,1
 Node,568,ZONE INLET NODE_UNIT1_BACKROW_MIDDLEFLOOR ATINLET,Air,1
 Node,569,ZONE INLET NODE_UNIT2_BACKROW_MIDDLEFLOOR ATINLET,Air,1
 Node,570,ZONE INLET NODE_UNIT3_BACKROW_MIDDLEFLOOR ATINLET,Air,1
 Node,571,ZONE INLET NODE_UNIT1_FRONTROW_TOPFLOOR ATINLET,Air,1
 Node,572,ZONE INLET NODE_UNIT2_FRONTROW_TOPFLOOR ATINLET,Air,1
 Node,573,ZONE INLET NODE_UNIT3_FRONTROW_TOPFLOOR ATINLET,Air,1
 Node,574,ZONE INLET NODE_UNIT1_BACKROW_TOPFLOOR ATINLET,Air,1
 Node,575,ZONE INLET NODE_UNIT2_BACKROW_TOPFLOOR ATINLET,Air,1
 Node,576,ZONE INLET NODE_UNIT3_BACKROW_TOPFLOOR ATINLET,Air,1
 Node,577,OA FAN INLET NODE_UNIT1_FRONTROW_BOTTOMFLOOR,Air,1
 Node,578,ERVEXHAUSTNODE_UNIT1_FRONTROW_BOTTOMFLOOR,Air,1
 Node,579,OA FAN INLET NODE_UNIT2_FRONTROW_BOTTOMFLOOR,Air,1
 Node,580,ERVEXHAUSTNODE_UNIT2_FRONTROW_BOTTOMFLOOR,Air,1
 Node,581,OA FAN INLET NODE_UNIT3_FRONTROW_BOTTOMFLOOR,Air,1
 Node,582,ERVEXHAUSTNODE_UNIT3_FRONTROW_BOTTOMFLOOR,Air,1
 Node,583,OA FAN INLET NODE_UNIT1_BACKROW_BOTTOMFLOOR,Air,1
 Node,584,ERVEXHAUSTNODE_UNIT1_BACKROW_BOTTOMFLOOR,Air,1
 Node,585,OA FAN INLET NODE_UNIT2_BACKROW_BOTTOMFLOOR,Air,1
 Node,586,ERVEXHAUSTNODE_UNIT2_BACKROW_BOTTOMFLOOR,Air,1
 Node,587,OA FAN INLET NODE_UNIT3_BACKROW_BOTTOMFLOOR,Air,1
 Node,588,ERVEXHAUSTNODE_UNIT3_BACKROW_BOTTOMFLOOR,Air,1
 Node,589,OA FAN INLET NODE_UNIT1_FRONTROW_MIDDLEFLOOR,Air,1
 Node,590,ERVEXHAUSTNODE_UNIT1_FRONTROW_MIDDLEFLOOR,Air,1
 Node,591,OA FAN INLET NODE_UNIT2_FRONTROW_MIDDLEFLOOR,Air,1
 Node,592,ERVEXHAUSTNODE_UNIT2_FRONTROW_MIDDLEFLOOR,Air,1
 Node,593,OA FAN INLET NODE_UNIT3_FRONTROW_MIDDLEFLOOR,Air,1
 Node,594,ERVEXHAUSTNODE_UNIT3_FRONTROW_MIDDLEFLOOR,Air,1
 Node,595,OA FAN INLET NODE_UNIT1_BACKROW_MIDDLEFLOOR,Air,1
 Node,596,ERVEXHAUSTNODE_UNIT1_BACKROW_MIDDLEFLOOR,Air,1
 Node,597,OA FAN INLET NODE_UNIT2_BACKROW_MIDDLEFLOOR,Air,1
 Node,598,ERVEXHAUSTNODE_UNIT2_BACKROW_MIDDLEFLOOR,Air,1
 Node,599,OA FAN INLET NODE_UNIT3_BACKROW_MIDDLEFLOOR,Air,1
 Node,600,ERVEXHAUSTNODE_UNIT3_BACKROW_MIDDLEFLOOR,Air,1
 Node,601,OA FAN INLET NODE_UNIT1_FRONTROW_TOPFLOOR,Air,1
 Node,602,ERVEXHAUSTNODE_UNIT1_FRONTROW_TOPFLOOR,Air,1
 Node,603,OA FAN INLET NODE_UNIT2_FRONTROW_TOPFLOOR,Air,1
 Node,604,ERVEXHAUSTNODE_UNIT2_FRONTROW_TOPFLOOR,Air,1
 Node,605,OA FAN INLET NODE_UNIT3_FRONTROW_TOPFLOOR,Air,1
 Node,606,ERVEXHAUSTNODE_UNIT3_FRONTROW_TOPFLOOR,Air,1
 Node,607,OA FAN INLET NODE_UNIT1_BACKROW_TOPFLOOR,Air,1
 Node,608,ERVEXHAUSTNODE_UNIT1_BACKROW_TOPFLOOR,Air,1
 Node,609,OA FAN INLET NODE_UNIT2_BACKROW_TOPFLOOR,Air,1
 Node,610,ERVEXHAUSTNODE_UNIT2_BACKROW_TOPFLOOR,Air,1
 Node,611,OA FAN INLET NODE_UNIT3_BACKROW_TOPFLOOR,Air,1
 Node,612,ERVEXHAUSTNODE_UNIT3_BACKROW_TOPFLOOR,Air,1
 Node,613,COOLING COIL AIR INLET NODE_UNIT1_FRONTROW_BOTTOMFLOOR,Air,1
 Node,614,EXHAUST OUTLET NODE_UNIT1_FRONTROW_BOTTOMFLOOR,Air,1
 Node,615,COOLING COIL AIR INLET NODE_UNIT2_FRONTROW_BOTTOMFLOOR,Air,1
 Node,616,EXHAUST OUTLET NODE_UNIT2_FRONTROW_BOTTOMFLOOR,Air,1
 Node,617,COOLING COIL AIR INLET NODE_UNIT3_FRONTROW_BOTTOMFLOOR,Air,1
 Node,618,EXHAUST OUTLET NODE_UNIT3_FRONTROW_BOTTOMFLOOR,Air,1
 Node,619,COOLING COIL AIR INLET NODE_UNIT1_BACKROW_BOTTOMFLOOR,Air,1
 Node,620,EXHAUST OUTLET NODE_UNIT1_BACKROW_BOTTOMFLOOR,Air,1
 Node,621,COOLING COIL AIR INLET NODE_UNIT2_BACKROW_BOTTOMFLOOR,Air,1
 Node,622,EXHAUST OUTLET NODE_UNIT2_BACKROW_BOTTOMFLOOR,Air,1
 Node,623,COOLING COIL AIR INLET NODE_UNIT3_BACKROW_BOTTOMFLOOR,Air,1
 Node,624,EXHAUST OUTLET NODE_UNIT3_BACKROW_BOTTOMFLOOR,Air,1
 Node,625,COOLING COIL AIR INLET NODE_UNIT1_FRONTROW_MIDDLEFLOOR,Air,1
 Node,626,EXHAUST OUTLET NODE_UNIT1_FRONTROW_MIDDLEFLOOR,Air,1
 Node,627,COOLING COIL AIR INLET NODE_UNIT2_FRONTROW_MIDDLEFLOOR,Air,1
 Node,628,EXHAUST OUTLET NODE_UNIT2_FRONTROW_MIDDLEFLOOR,Air,1
 Node,629,COOLING COIL AIR INLET NODE_UNIT3_FRONTROW_MIDDLEFLOOR,Air,1
 Node,630,EXHAUST OUTLET NODE_UNIT3_FRONTROW_MIDDLEFLOOR,Air,1
 Node,631,COOLING COIL AIR INLET NODE_UNIT1_BACKROW_MIDDLEFLOOR,Air,1
 Node,632,EXHAUST OUTLET NODE_UNIT1_BACKROW_MIDDLEFLOOR,Air,1
 Node,633,COOLING COIL AIR INLET NODE_UNIT2_BACKROW_MIDDLEFLOOR,Air,1
 Node,634,EXHAUST OUTLET NODE_UNIT2_BACKROW_MIDDLEFLOOR,Air,1
 Node,635,COOLING COIL AIR INLET NODE_UNIT3_BACKROW_MIDDLEFLOOR,Air,1
 Node,636,EXHAUST OUTLET NODE_UNIT3_BACKROW_MIDDLEFLOOR,Air,1
 Node,637,COOLING COIL AIR INLET NODE_UNIT1_FRONTROW_TOPFLOOR,Air,1
 Node,638,EXHAUST OUTLET NODE_UNIT1_FRONTROW_TOPFLOOR,Air,1
 Node,639,COOLING COIL AIR INLET NODE_UNIT2_FRONTROW_TOPFLOOR,Air,1
 Node,640,EXHAUST OUTLET NODE_UNIT2_FRONTROW_TOPFLOOR,Air,1
 Node,641,COOLING COIL AIR INLET NODE_UNIT3_FRONTROW_TOPFLOOR,Air,1
 Node,642,EXHAUST OUTLET NODE_UNIT3_FRONTROW_TOPFLOOR,Air,1
 Node,643,COOLING COIL AIR INLET NODE_UNIT1_BACKROW_TOPFLOOR,Air,1
 Node,644,EXHAUST OUTLET NODE_UNIT1_BACKROW_TOPFLOOR,Air,1
 Node,645,COOLING COIL AIR INLET NODE_UNIT2_BACKROW_TOPFLOOR,Air,1
 Node,646,EXHAUST OUTLET NODE_UNIT2_BACKROW_TOPFLOOR,Air,1
 Node,647,COOLING COIL AIR INLET NODE_UNIT3_BACKROW_TOPFLOOR,Air,1
 Node,648,EXHAUST OUTLET NODE_UNIT3_BACKROW_TOPFLOOR,Air,1
 Node,649,HEATING COIL AIR INLET NODE_UNIT1_FRONTROW_BOTTOMFLOOR,Air,1
 Node,650,HEATING COIL AIR INLET NODE_UNIT2_FRONTROW_BOTTOMFLOOR,Air,1
 Node,651,HEATING COIL AIR INLET NODE_UNIT3_FRONTROW_BOTTOMFLOOR,Air,1
 Node,652,HEATING COIL AIR INLET NODE_UNIT1_BACKROW_BOTTOMFLOOR,Air,1
 Node,653,HEATING COIL AIR INLET NODE_UNIT2_BACKROW_BOTTOMFLOOR,Air,1
 Node,654,HEATING COIL AIR INLET NODE_UNIT3_BACKROW_BOTTOMFLOOR,Air,1
 Node,655,HEATING COIL AIR INLET NODE_UNIT1_FRONTROW_MIDDLEFLOOR,Air,1
 Node,656,HEATING COIL AIR INLET NODE_UNIT2_FRONTROW_MIDDLEFLOOR,Air,1
 Node,657,HEATING COIL AIR INLET NODE_UNIT3_FRONTROW_MIDDLEFLOOR,Air,1
 Node,658,HEATING COIL AIR INLET NODE_UNIT1_BACKROW_MIDDLEFLOOR,Air,1
 Node,659,HEATING COIL AIR INLET NODE_UNIT2_BACKROW_MIDDLEFLOOR,Air,1
 Node,660,HEATING COIL AIR INLET NODE_UNIT3_BACKROW_MIDDLEFLOOR,Air,1
 Node,661,HEATING COIL AIR INLET NODE_UNIT1_FRONTROW_TOPFLOOR,Air,1
 Node,662,HEATING COIL AIR INLET NODE_UNIT2_FRONTROW_TOPFLOOR,Air,1
 Node,663,HEATING COIL AIR INLET NODE_UNIT3_FRONTROW_TOPFLOOR,Air,1
 Node,664,HEATING COIL AIR INLET NODE_UNIT1_BACKROW_TOPFLOOR,Air,1
 Node,665,HEATING COIL AIR INLET NODE_UNIT2_BACKROW_TOPFLOOR,Air,1
 Node,666,HEATING COIL AIR INLET NODE_UNIT3_BACKROW_TOPFLOOR,Air,1
! ===============================================================
! Suspicious nodes have 0 references.  It is normal for some nodes, however.
! Listing nodes with 0 references (culled from previous list):
! <Suspicious Node>,<NodeNumber>,<Node Name>,<Node Fluid Type>,<# Times Node Referenced After Definition>
 Suspicious Node,433,ZONE NODE_UNIT1_FRONTROW_BOTTOMFLOOR,Air,0
 Suspicious Node,436,ZONE NODE_UNIT2_FRONTROW_BOTTOMFLOOR,Air,0
 Suspicious Node,439,ZONE NODE_UNIT3_FRONTROW_BOTTOMFLOOR,Air,0
 Suspicious Node,442,ZONE NODE_UNIT1_BACKROW_BOTTOMFLOOR,Air,0
 Suspicious Node,445,ZONE NODE_UNIT2_BACKROW_BOTTOMFLOOR,Air,0
 Suspicious Node,448,ZONE NODE_UNIT3_BACKROW_BOTTOMFLOOR,Air,0
 Suspicious Node,451,ZONE NODE_UNIT1_FRONTROW_MIDDLEFLOOR,Air,0
 Suspicious Node,454,ZONE NODE_UNIT2_FRONTROW_MIDDLEFLOOR,Air,0
 Suspicious Node,457,ZONE NODE_UNIT3_FRONTROW_MIDDLEFLOOR,Air,0
 Suspicious Node,460,ZONE NODE_UNIT1_BACKROW_MIDDLEFLOOR,Air,0
 Suspicious Node,463,ZONE NODE_UNIT2_BACKROW_MIDDLEFLOOR,Air,0
 Suspicious Node,466,ZONE NODE_UNIT3_BACKROW_MIDDLEFLOOR,Air,0
 Suspicious Node,469,ZONE NODE_UNIT1_FRONTROW_TOPFLOOR,Air,0
 Suspicious Node,472,ZONE NODE_UNIT2_FRONTROW_TOPFLOOR,Air,0
 Suspicious Node,475,ZONE NODE_UNIT3_FRONTROW_TOPFLOOR,Air,0
 Suspicious Node,478,ZONE NODE_UNIT1_BACKROW_TOPFLOOR,Air,0
 Suspicious Node,481,ZONE NODE_UNIT2_BACKROW_TOPFLOOR,Air,0
 Suspicious Node,484,ZONE NODE_UNIT3_BACKROW_TOPFLOOR,Air,0
 Suspicious Node,541,OUTSIDE AIR INLET NODE_UNIT1_FRONTROW_BOTTOMFLOOR,Air,0
 Suspicious Node,542,OUTSIDE AIR INLET NODE_UNIT2_FRONTROW_BOTTOMFLOOR,Air,0
 Suspicious Node,543,OUTSIDE AIR INLET NODE_UNIT3_FRONTROW_BOTTOMFLOOR,Air,0
 Suspicious Node,544,OUTSIDE AIR INLET NODE_UNIT1_BACKROW_BOTTOMFLOOR,Air,0
 Suspicious Node,545,OUTSIDE AIR INLET NODE_UNIT2_BACKROW_BOTTOMFLOOR,Air,0
 Suspicious Node,546,OUTSIDE AIR INLET NODE_UNIT3_BACKROW_BOTTOMFLOOR,Air,0
 Suspicious Node,547,OUTSIDE AIR INLET NODE_UNIT1_FRONTROW_MIDDLEFLOOR,Air,0
 Suspicious Node,548,OUTSIDE AIR INLET NODE_UNIT2_FRONTROW_MIDDLEFLOOR,Air,0
 Suspicious Node,549,OUTSIDE AIR INLET NODE_UNIT3_FRONTROW_MIDDLEFLOOR,Air,0
 Suspicious Node,550,OUTSIDE AIR INLET NODE_UNIT1_BACKROW_MIDDLEFLOOR,Air,0
 Suspicious Node,551,OUTSIDE AIR INLET NODE_UNIT2_BACKROW_MIDDLEFLOOR,Air,0
 Suspicious Node,552,OUTSIDE AIR INLET NODE_UNIT3_BACKROW_MIDDLEFLOOR,Air,0
 Suspicious Node,553,OUTSIDE AIR INLET NODE_UNIT1_FRONTROW_TOPFLOOR,Air,0
 Suspicious Node,554,OUTSIDE AIR INLET NODE_UNIT2_FRONTROW_TOPFLOOR,Air,0
 Suspicious Node,555,OUTSIDE AIR INLET NODE_UNIT3_FRONTROW_TOPFLOOR,Air,0
 Suspicious Node,556,OUTSIDE AIR INLET NODE_UNIT1_BACKROW_TOPFLOOR,Air,0
 Suspicious Node,557,OUTSIDE AIR INLET NODE_UNIT2_BACKROW_TOPFLOOR,Air,0
 Suspicious Node,558,OUTSIDE AIR INLET NODE_UNIT3_BACKROW_TOPFLOOR,Air,0
! ===============================================================
! <#Branch Lists>,<Number of Branch Lists>
 #Branch Lists,54
! <Branch List>,<Branch List Count>,<Branch List Name>,<Loop Name>,<Loop Type>,<Number of Branches>
! <Branch>,<Branch Count>,<Branch Name>,<Loop Name>,<Loop Type>,<Branch Inlet Node Name>,<Branch Outlet Node Name>
 Branch List,1,AIR LOOP BRANCHES_UNIT1_FRONTROW_BOTTOMFLOOR,CENTRAL SYSTEM_UNIT1_FRONTROW_BOTTOMFLOOR,Air,1
   Branch,1,AIR LOOP MAIN BRANCH_UNIT1_FRONTROW_BOTTOMFLOOR,CENTRAL SYSTEM_UNIT1_FRONTROW_BOTTOMFLOOR,Air,AIR LOOP INLET NODE_UNIT1_FRONTROW_BOTTOMFLOOR,AIR LOOP OUTLET NODE_UNIT1_FRONTROW_BOTTOMFLOOR
 Branch List,2,AIR LOOP BRANCHES_UNIT2_FRONTROW_BOTTOMFLOOR,CENTRAL SYSTEM_UNIT2_FRONTROW_BOTTOMFLOOR,Air,1
   Branch,1,AIR LOOP MAIN BRANCH_UNIT2_FRONTROW_BOTTOMFLOOR,CENTRAL SYSTEM_UNIT2_FRONTROW_BOTTOMFLOOR,Air,AIR LOOP INLET NODE_UNIT2_FRONTROW_BOTTOMFLOOR,AIR LOOP OUTLET NODE_UNIT2_FRONTROW_BOTTOMFLOOR
 Branch List,3,AIR LOOP BRANCHES_UNIT3_FRONTROW_BOTTOMFLOOR,CENTRAL SYSTEM_UNIT3_FRONTROW_BOTTOMFLOOR,Air,1
   Branch,1,AIR LOOP MAIN BRANCH_UNIT3_FRONTROW_BOTTOMFLOOR,CENTRAL SYSTEM_UNIT3_FRONTROW_BOTTOMFLOOR,Air,AIR LOOP INLET NODE_UNIT3_FRONTROW_BOTTOMFLOOR,AIR LOOP OUTLET NODE_UNIT3_FRONTROW_BOTTOMFLOOR
 Branch List,4,AIR LOOP BRANCHES_UNIT1_BACKROW_BOTTOMFLOOR,CENTRAL SYSTEM_UNIT1_BACKROW_BOTTOMFLOOR,Air,1
   Branch,1,AIR LOOP MAIN BRANCH_UNIT1_BACKROW_BOTTOMFLOOR,CENTRAL SYSTEM_UNIT1_BACKROW_BOTTOMFLOOR,Air,AIR LOOP INLET NODE_UNIT1_BACKROW_BOTTOMFLOOR,AIR LOOP OUTLET NODE_UNIT1_BACKROW_BOTTOMFLOOR
 Branch List,5,AIR LOOP BRANCHES_UNIT2_BACKROW_BOTTOMFLOOR,CENTRAL SYSTEM_UNIT2_BACKROW_BOTTOMFLOOR,Air,1
   Branch,1,AIR LOOP MAIN BRANCH_UNIT2_BACKROW_BOTTOMFLOOR,CENTRAL SYSTEM_UNIT2_BACKROW_BOTTOMFLOOR,Air,AIR LOOP INLET NODE_UNIT2_BACKROW_BOTTOMFLOOR,AIR LOOP OUTLET NODE_UNIT2_BACKROW_BOTTOMFLOOR
 Branch List,6,AIR LOOP BRANCHES_UNIT3_BACKROW_BOTTOMFLOOR,CENTRAL SYSTEM_UNIT3_BACKROW_BOTTOMFLOOR,Air,1
   Branch,1,AIR LOOP MAIN BRANCH_UNIT3_BACKROW_BOTTOMFLOOR,CENTRAL SYSTEM_UNIT3_BACKROW_BOTTOMFLOOR,Air,AIR LOOP INLET NODE_UNIT3_BACKROW_BOTTOMFLOOR,AIR LOOP OUTLET NODE_UNIT3_BACKROW_BOTTOMFLOOR
 Branch List,7,AIR LOOP BRANCHES_UNIT1_FRONTROW_MIDDLEFLOOR,CENTRAL SYSTEM_UNIT1_FRONTROW_MIDDLEFLOOR,Air,1
   Branch,1,AIR LOOP MAIN BRANCH_UNIT1_FRONTROW_MIDDLEFLOOR,CENTRAL SYSTEM_UNIT1_FRONTROW_MIDDLEFLOOR,Air,AIR LOOP INLET NODE_UNIT1_FRONTROW_MIDDLEFLOOR,AIR LOOP OUTLET NODE_UNIT1_FRONTROW_MIDDLEFLOOR
 Branch List,8,AIR LOOP BRANCHES_UNIT2_FRONTROW_MIDDLEFLOOR,CENTRAL SYSTEM_UNIT2_FRONTROW_MIDDLEFLOOR,Air,1
   Branch,1,AIR LOOP MAIN BRANCH_UNIT2_FRONTROW_MIDDLEFLOOR,CENTRAL SYSTEM_UNIT2_FRONTROW_MIDDLEFLOOR,Air,AIR LOOP INLET NODE_UNIT2_FRONTROW_MIDDLEFLOOR,AIR LOOP OUTLET NODE_UNIT2_FRONTROW_MIDDLEFLOOR
 Branch List,9,AIR LOOP BRANCHES_UNIT3_FRONTROW_MIDDLEFLOOR,CENTRAL SYSTEM_UNIT3_FRONTROW_MIDDLEFLOOR,Air,1
   Branch,1,AIR LOOP MAIN BRANCH_UNIT3_FRONTROW_MIDDLEFLOOR,CENTRAL SYSTEM_UNIT3_FRONTROW_MIDDLEFLOOR,Air,AIR LOOP INLET NODE_UNIT3_FRONTROW_MIDDLEFLOOR,AIR LOOP OUTLET NODE_UNIT3_FRONTROW_MIDDLEFLOOR
 Branch List,10,AIR LOOP BRANCHES_UNIT1_BACKROW_MIDDLEFLOOR,CENTRAL SYSTEM_UNIT1_BACKROW_MIDDLEFLOOR,Air,1
   Branch,1,AIR LOOP MAIN BRANCH_UNIT1_BACKROW_MIDDLEFLOOR,CENTRAL SYSTEM_UNIT1_BACKROW_MIDDLEFLOOR,Air,AIR LOOP INLET NODE_UNIT1_BACKROW_MIDDLEFLOOR,AIR LOOP OUTLET NODE_UNIT1_BACKROW_MIDDLEFLOOR
 Branch List,11,AIR LOOP BRANCHES_UNIT2_BACKROW_MIDDLEFLOOR,CENTRAL SYSTEM_UNIT2_BACKROW_MIDDLEFLOOR,Air,1
   Branch,1,AIR LOOP MAIN BRANCH_UNIT2_BACKROW_MIDDLEFLOOR,CENTRAL SYSTEM_UNIT2_BACKROW_MIDDLEFLOOR,Air,AIR LOOP INLET NODE_UNIT2_BACKROW_MIDDLEFLOOR,AIR LOOP OUTLET NODE_UNIT2_BACKROW_MIDDLEFLOOR
 Branch List,12,AIR LOOP BRANCHES_UNIT3_BACKROW_MIDDLEFLOOR,CENTRAL SYSTEM_UNIT3_BACKROW_MIDDLEFLOOR,Air,1
   Branch,1,AIR LOOP MAIN BRANCH_UNIT3_BACKROW_MIDDLEFLOOR,CENTRAL SYSTEM_UNIT3_BACKROW_MIDDLEFLOOR,Air,AIR LOOP INLET NODE_UNIT3_BACKROW_MIDDLEFLOOR,AIR LOOP OUTLET NODE_UNIT3_BACKROW_MIDDLEFLOOR
 Branch List,13,AIR LOOP BRANCHES_UNIT1_FRONTROW_TOPFLOOR,CENTRAL SYSTEM_UNIT1_FRONTROW_TOPFLOOR,Air,1
   Branch,1,AIR LOOP MAIN BRANCH_UNIT1_FRONTROW_TOPFLOOR,CENTRAL SYSTEM_UNIT1_FRONTROW_TOPFLOOR,Air,AIR LOOP INLET NODE_UNIT1_FRONTROW_TOPFLOOR,AIR LOOP OUTLET NODE_UNIT1_FRONTROW_TOPFLOOR
 Branch List,14,AIR LOOP BRANCHES_UNIT2_FRONTROW_TOPFLOOR,CENTRAL SYSTEM_UNIT2_FRONTROW_TOPFLOOR,Air,1
   Branch,1,AIR LOOP MAIN BRANCH_UNIT2_FRONTROW_TOPFLOOR,CENTRAL SYSTEM_UNIT2_FRONTROW_TOPFLOOR,Air,AIR LOOP INLET NODE_UNIT2_FRONTROW_TOPFLOOR,AIR LOOP OUTLET NODE_UNIT2_FRONTROW_TOPFLOOR
 Branch List,15,AIR LOOP BRANCHES_UNIT3_FRONTROW_TOPFLOOR,CENTRAL SYSTEM_UNIT3_FRONTROW_TOPFLOOR,Air,1
   Branch,1,AIR LOOP MAIN BRANCH_UNIT3_FRONTROW_TOPFLOOR,CENTRAL SYSTEM_UNIT3_FRONTROW_TOPFLOOR,Air,AIR LOOP INLET NODE_UNIT3_FRONTROW_TOPFLOOR,AIR LOOP OUTLET NODE_UNIT3_FRONTROW_TOPFLOOR
 Branch List,16,AIR LOOP BRANCHES_UNIT1_BACKROW_TOPFLOOR,CENTRAL SYSTEM_UNIT1_BACKROW_TOPFLOOR,Air,1
   Branch,1,AIR LOOP MAIN BRANCH_UNIT1_BACKROW_TOPFLOOR,CENTRAL SYSTEM_UNIT1_BACKROW_TOPFLOOR,Air,AIR LOOP INLET NODE_UNIT1_BACKROW_TOPFLOOR,AIR LOOP OUTLET NODE_UNIT1_BACKROW_TOPFLOOR
 Branch List,17,AIR LOOP BRANCHES_UNIT2_BACKROW_TOPFLOOR,CENTRAL SYSTEM_UNIT2_BACKROW_TOPFLOOR,Air,1
   Branch,1,AIR LOOP MAIN BRANCH_UNIT2_BACKROW_TOPFLOOR,CENTRAL SYSTEM_UNIT2_BACKROW_TOPFLOOR,Air,AIR LOOP INLET NODE_UNIT2_BACKROW_TOPFLOOR,AIR LOOP OUTLET NODE_UNIT2_BACKROW_TOPFLOOR
 Branch List,18,AIR LOOP BRANCHES_UNIT3_BACKROW_TOPFLOOR,CENTRAL SYSTEM_UNIT3_BACKROW_TOPFLOOR,Air,1
   Branch,1,AIR LOOP MAIN BRANCH_UNIT3_BACKROW_TOPFLOOR,CENTRAL SYSTEM_UNIT3_BACKROW_TOPFLOOR,Air,AIR LOOP INLET NODE_UNIT3_BACKROW_TOPFLOOR,AIR LOOP OUTLET NODE_UNIT3_BACKROW_TOPFLOOR
 Branch List,19,DHW SUPPLY BRANCHES_UNIT1_FRONTROW_BOTTOMFLOOR,DHW LOOP_UNIT1_FRONTROW_BOTTOMFLOOR,Plant Supply,3
   Branch,1,MAINS INLET BRANCH_UNIT1_FRONTROW_BOTTOMFLOOR,DHW LOOP_UNIT1_FRONTROW_BOTTOMFLOOR,Plant Supply,MAINS INLET NODE_UNIT1_FRONTROW_BOTTOMFLOOR,MAINS PRESSURE OUTLET NODE_UNIT1_FRONTROW_BOTTOMFLOOR
   Branch,2,WATER HEATER BRANCH_UNIT1_FRONTROW_BOTTOMFLOOR,DHW LOOP_UNIT1_FRONTROW_BOTTOMFLOOR,Plant Supply,WATER HEATER USE INLET NODE_UNIT1_FRONTROW_BOTTOMFLOOR,WATER HEATER USE OUTLET NODE_UNIT1_FRONTROW_BOTTOMFLOOR
   Branch,3,DHW SUPPLY OUTLET BRANCH_UNIT1_FRONTROW_BOTTOMFLOOR,DHW LOOP_UNIT1_FRONTROW_BOTTOMFLOOR,Plant Supply,DHW SUPPLY OUTLET PIPE INLET NODE_UNIT1_FRONTROW_BOTTOMFLOOR,DHW SUPPLY OUTLET NODE_UNIT1_FRONTROW_BOTTOMFLOOR
 Branch List,20,DHW DEMAND BRANCHES_UNIT1_FRONTROW_BOTTOMFLOOR,DHW LOOP_UNIT1_FRONTROW_BOTTOMFLOOR,Plant Demand,7
   Branch,1,DHW DEMAND INLET BRANCH_UNIT1_FRONTROW_BOTTOMFLOOR,DHW LOOP_UNIT1_FRONTROW_BOTTOMFLOOR,Plant Demand,DHW DEMAND INLET NODE_UNIT1_FRONTROW_BOTTOMFLOOR,DHW DEMAND INLET PIPE OUTLET NODE_UNIT1_FRONTROW_BOTTOMFLOOR
   Branch,2,WATER SINK BRANCH_UNIT1_FRONTROW_BOTTOMFLOOR,DHW LOOP_UNIT1_FRONTROW_BOTTOMFLOOR,Plant Demand,WATER SINK INLET NODE_UNIT1_FRONTROW_BOTTOMFLOOR,WATER SINK OUTLET NODE_UNIT1_FRONTROW_BOTTOMFLOOR
   Branch,3,WATER SHOWER BRANCH_UNIT1_FRONTROW_BOTTOMFLOOR,DHW LOOP_UNIT1_FRONTROW_BOTTOMFLOOR,Plant Demand,WATER SHOWER INLET NODE_UNIT1_FRONTROW_BOTTOMFLOOR,WATER SHOWER OUTLET NODE_UNIT1_FRONTROW_BOTTOMFLOOR
   Branch,4,WATER CLOTHESWASHER BRANCH_UNIT1_FRONTROW_BOTTOMFLOOR,DHW LOOP_UNIT1_FRONTROW_BOTTOMFLOOR,Plant Demand,WATER CLOTHESWASHER INLET NODE_UNIT1_FRONTROW_BOTTOMFLOOR,WATER CLOTHESWASHER OUTLET NODE_UNIT1_FRONTROW_BOTTOMFLOOR
   Branch,5,WATER DISHWASHER BRANCH_UNIT1_FRONTROW_BOTTOMFLOOR,DHW LOOP_UNIT1_FRONTROW_BOTTOMFLOOR,Plant Demand,WATER DISHWASHER INLET NODE_UNIT1_FRONTROW_BOTTOMFLOOR,WATER DISHWASHER OUTLET NODE_UNIT1_FRONTROW_BOTTOMFLOOR
   Branch,6,WATER BATH BRANCH_UNIT1_FRONTROW_BOTTOMFLOOR,DHW LOOP_UNIT1_FRONTROW_BOTTOMFLOOR,Plant Demand,WATER BATH INLET NODE_UNIT1_FRONTROW_BOTTOMFLOOR,WATER BATH OUTLET NODE_UNIT1_FRONTROW_BOTTOMFLOOR
   Branch,7,MAINS MAKEUP BRANCH_UNIT1_FRONTROW_BOTTOMFLOOR,DHW LOOP_UNIT1_FRONTROW_BOTTOMFLOOR,Plant Demand,MAINS MAKEUP PIPE INLET NODE_UNIT1_FRONTROW_BOTTOMFLOOR,MAINS MAKEUP NODE_UNIT1_FRONTROW_BOTTOMFLOOR
 Branch List,21,DHW SUPPLY BRANCHES_UNIT2_FRONTROW_BOTTOMFLOOR,DHW LOOP_UNIT2_FRONTROW_BOTTOMFLOOR,Plant Supply,3
   Branch,1,MAINS INLET BRANCH_UNIT2_FRONTROW_BOTTOMFLOOR,DHW LOOP_UNIT2_FRONTROW_BOTTOMFLOOR,Plant Supply,MAINS INLET NODE_UNIT2_FRONTROW_BOTTOMFLOOR,MAINS PRESSURE OUTLET NODE_UNIT2_FRONTROW_BOTTOMFLOOR
   Branch,2,WATER HEATER BRANCH_UNIT2_FRONTROW_BOTTOMFLOOR,DHW LOOP_UNIT2_FRONTROW_BOTTOMFLOOR,Plant Supply,WATER HEATER USE INLET NODE_UNIT2_FRONTROW_BOTTOMFLOOR,WATER HEATER USE OUTLET NODE_UNIT2_FRONTROW_BOTTOMFLOOR
   Branch,3,DHW SUPPLY OUTLET BRANCH_UNIT2_FRONTROW_BOTTOMFLOOR,DHW LOOP_UNIT2_FRONTROW_BOTTOMFLOOR,Plant Supply,DHW SUPPLY OUTLET PIPE INLET NODE_UNIT2_FRONTROW_BOTTOMFLOOR,DHW SUPPLY OUTLET NODE_UNIT2_FRONTROW_BOTTOMFLOOR
 Branch List,22,DHW DEMAND BRANCHES_UNIT2_FRONTROW_BOTTOMFLOOR,DHW LOOP_UNIT2_FRONTROW_BOTTOMFLOOR,Plant Demand,7
   Branch,1,DHW DEMAND INLET BRANCH_UNIT2_FRONTROW_BOTTOMFLOOR,DHW LOOP_UNIT2_FRONTROW_BOTTOMFLOOR,Plant Demand,DHW DEMAND INLET NODE_UNIT2_FRONTROW_BOTTOMFLOOR,DHW DEMAND INLET PIPE OUTLET NODE_UNIT2_FRONTROW_BOTTOMFLOOR
   Branch,2,WATER SINK BRANCH_UNIT2_FRONTROW_BOTTOMFLOOR,DHW LOOP_UNIT2_FRONTROW_BOTTOMFLOOR,Plant Demand,WATER SINK INLET NODE_UNIT2_FRONTROW_BOTTOMFLOOR,WATER SINK OUTLET NODE_UNIT2_FRONTROW_BOTTOMFLOOR
   Branch,3,WATER SHOWER BRANCH_UNIT2_FRONTROW_BOTTOMFLOOR,DHW LOOP_UNIT2_FRONTROW_BOTTOMFLOOR,Plant Demand,WATER SHOWER INLET NODE_UNIT2_FRONTROW_BOTTOMFLOOR,WATER SHOWER OUTLET NODE_UNIT2_FRONTROW_BOTTOMFLOOR
   Branch,4,WATER CLOTHESWASHER BRANCH_UNIT2_FRONTROW_BOTTOMFLOOR,DHW LOOP_UNIT2_FRONTROW_BOTTOMFLOOR,Plant Demand,WATER CLOTHESWASHER INLET NODE_UNIT2_FRONTROW_BOTTOMFLOOR,WATER CLOTHESWASHER OUTLET NODE_UNIT2_FRONTROW_BOTTOMFLOOR
   Branch,5,WATER DISHWASHER BRANCH_UNIT2_FRONTROW_BOTTOMFLOOR,DHW LOOP_UNIT2_FRONTROW_BOTTOMFLOOR,Plant Demand,WATER DISHWASHER INLET NODE_UNIT2_FRONTROW_BOTTOMFLOOR,WATER DISHWASHER OUTLET NODE_UNIT2_FRONTROW_BOTTOMFLOOR
   Branch,6,WATER BATH BRANCH_UNIT2_FRONTROW_BOTTOMFLOOR,DHW LOOP_UNIT2_FRONTROW_BOTTOMFLOOR,Plant Demand,WATER BATH INLET NODE_UNIT2_FRONTROW_BOTTOMFLOOR,WATER BATH OUTLET NODE_UNIT2_FRONTROW_BOTTOMFLOOR
   Branch,7,MAINS MAKEUP BRANCH_UNIT2_FRONTROW_BOTTOMFLOOR,DHW LOOP_UNIT2_FRONTROW_BOTTOMFLOOR,Plant Demand,MAINS MAKEUP PIPE INLET NODE_UNIT2_FRONTROW_BOTTOMFLOOR,MAINS MAKEUP NODE_UNIT2_FRONTROW_BOTTOMFLOOR
 Branch List,23,DHW SUPPLY BRANCHES_UNIT3_FRONTROW_BOTTOMFLOOR,DHW LOOP_UNIT3_FRONTROW_BOTTOMFLOOR,Plant Supply,3
   Branch,1,MAINS INLET BRANCH_UNIT3_FRONTROW_BOTTOMFLOOR,DHW LOOP_UNIT3_FRONTROW_BOTTOMFLOOR,Plant Supply,MAINS INLET NODE_UNIT3_FRONTROW_BOTTOMFLOOR,MAINS PRESSURE OUTLET NODE_UNIT3_FRONTROW_BOTTOMFLOOR
   Branch,2,WATER HEATER BRANCH_UNIT3_FRONTROW_BOTTOMFLOOR,DHW LOOP_UNIT3_FRONTROW_BOTTOMFLOOR,Plant Supply,WATER HEATER USE INLET NODE_UNIT3_FRONTROW_BOTTOMFLOOR,WATER HEATER USE OUTLET NODE_UNIT3_FRONTROW_BOTTOMFLOOR
   Branch,3,DHW SUPPLY OUTLET BRANCH_UNIT3_FRONTROW_BOTTOMFLOOR,DHW LOOP_UNIT3_FRONTROW_BOTTOMFLOOR,Plant Supply,DHW SUPPLY OUTLET PIPE INLET NODE_UNIT3_FRONTROW_BOTTOMFLOOR,DHW SUPPLY OUTLET NODE_UNIT3_FRONTROW_BOTTOMFLOOR
 Branch List,24,DHW DEMAND BRANCHES_UNIT3_FRONTROW_BOTTOMFLOOR,DHW LOOP_UNIT3_FRONTROW_BOTTOMFLOOR,Plant Demand,7
   Branch,1,DHW DEMAND INLET BRANCH_UNIT3_FRONTROW_BOTTOMFLOOR,DHW LOOP_UNIT3_FRONTROW_BOTTOMFLOOR,Plant Demand,DHW DEMAND INLET NODE_UNIT3_FRONTROW_BOTTOMFLOOR,DHW DEMAND INLET PIPE OUTLET NODE_UNIT3_FRONTROW_BOTTOMFLOOR
   Branch,2,WATER SINK BRANCH_UNIT3_FRONTROW_BOTTOMFLOOR,DHW LOOP_UNIT3_FRONTROW_BOTTOMFLOOR,Plant Demand,WATER SINK INLET NODE_UNIT3_FRONTROW_BOTTOMFLOOR,WATER SINK OUTLET NODE_UNIT3_FRONTROW_BOTTOMFLOOR
   Branch,3,WATER SHOWER BRANCH_UNIT3_FRONTROW_BOTTOMFLOOR,DHW LOOP_UNIT3_FRONTROW_BOTTOMFLOOR,Plant Demand,WATER SHOWER INLET NODE_UNIT3_FRONTROW_BOTTOMFLOOR,WATER SHOWER OUTLET NODE_UNIT3_FRONTROW_BOTTOMFLOOR
   Branch,4,WATER CLOTHESWASHER BRANCH_UNIT3_FRONTROW_BOTTOMFLOOR,DHW LOOP_UNIT3_FRONTROW_BOTTOMFLOOR,Plant Demand,WATER CLOTHESWASHER INLET NODE_UNIT3_FRONTROW_BOTTOMFLOOR,WATER CLOTHESWASHER OUTLET NODE_UNIT3_FRONTROW_BOTTOMFLOOR
   Branch,5,WATER DISHWASHER BRANCH_UNIT3_FRONTROW_BOTTOMFLOOR,DHW LOOP_UNIT3_FRONTROW_BOTTOMFLOOR,Plant Demand,WATER DISHWASHER INLET NODE_UNIT3_FRONTROW_BOTTOMFLOOR,WATER DISHWASHER OUTLET NODE_UNIT3_FRONTROW_BOTTOMFLOOR
   Branch,6,WATER BATH BRANCH_UNIT3_FRONTROW_BOTTOMFLOOR,DHW LOOP_UNIT3_FRONTROW_BOTTOMFLOOR,Plant Demand,WATER BATH INLET NODE_UNIT3_FRONTROW_BOTTOMFLOOR,WATER BATH OUTLET NODE_UNIT3_FRONTROW_BOTTOMFLOOR
   Branch,7,MAINS MAKEUP BRANCH_UNIT3_FRONTROW_BOTTOMFLOOR,DHW LOOP_UNIT3_FRONTROW_BOTTOMFLOOR,Plant Demand,MAINS MAKEUP PIPE INLET NODE_UNIT3_FRONTROW_BOTTOMFLOOR,MAINS MAKEUP NODE_UNIT3_FRONTROW_BOTTOMFLOOR
 Branch List,25,DHW SUPPLY BRANCHES_UNIT1_BACKROW_BOTTOMFLOOR,DHW LOOP_UNIT1_BACKROW_BOTTOMFLOOR,Plant Supply,3
   Branch,1,MAINS INLET BRANCH_UNIT1_BACKROW_BOTTOMFLOOR,DHW LOOP_UNIT1_BACKROW_BOTTOMFLOOR,Plant Supply,MAINS INLET NODE_UNIT1_BACKROW_BOTTOMFLOOR,MAINS PRESSURE OUTLET NODE_UNIT1_BACKROW_BOTTOMFLOOR
   Branch,2,WATER HEATER BRANCH_UNIT1_BACKROW_BOTTOMFLOOR,DHW LOOP_UNIT1_BACKROW_BOTTOMFLOOR,Plant Supply,WATER HEATER USE INLET NODE_UNIT1_BACKROW_BOTTOMFLOOR,WATER HEATER USE OUTLET NODE_UNIT1_BACKROW_BOTTOMFLOOR
   Branch,3,DHW SUPPLY OUTLET BRANCH_UNIT1_BACKROW_BOTTOMFLOOR,DHW LOOP_UNIT1_BACKROW_BOTTOMFLOOR,Plant Supply,DHW SUPPLY OUTLET PIPE INLET NODE_UNIT1_BACKROW_BOTTOMFLOOR,DHW SUPPLY OUTLET NODE_UNIT1_BACKROW_BOTTOMFLOOR
 Branch List,26,DHW DEMAND BRANCHES_UNIT1_BACKROW_BOTTOMFLOOR,DHW LOOP_UNIT1_BACKROW_BOTTOMFLOOR,Plant Demand,7
   Branch,1,DHW DEMAND INLET BRANCH_UNIT1_BACKROW_BOTTOMFLOOR,DHW LOOP_UNIT1_BACKROW_BOTTOMFLOOR,Plant Demand,DHW DEMAND INLET NODE_UNIT1_BACKROW_BOTTOMFLOOR,DHW DEMAND INLET PIPE OUTLET NODE_UNIT1_BACKROW_BOTTOMFLOOR
   Branch,2,WATER SINK BRANCH_UNIT1_BACKROW_BOTTOMFLOOR,DHW LOOP_UNIT1_BACKROW_BOTTOMFLOOR,Plant Demand,WATER SINK INLET NODE_UNIT1_BACKROW_BOTTOMFLOOR,WATER SINK OUTLET NODE_UNIT1_BACKROW_BOTTOMFLOOR
   Branch,3,WATER SHOWER BRANCH_UNIT1_BACKROW_BOTTOMFLOOR,DHW LOOP_UNIT1_BACKROW_BOTTOMFLOOR,Plant Demand,WATER SHOWER INLET NODE_UNIT1_BACKROW_BOTTOMFLOOR,WATER SHOWER OUTLET NODE_UNIT1_BACKROW_BOTTOMFLOOR
   Branch,4,WATER CLOTHESWASHER BRANCH_UNIT1_BACKROW_BOTTOMFLOOR,DHW LOOP_UNIT1_BACKROW_BOTTOMFLOOR,Plant Demand,WATER CLOTHESWASHER INLET NODE_UNIT1_BACKROW_BOTTOMFLOOR,WATER CLOTHESWASHER OUTLET NODE_UNIT1_BACKROW_BOTTOMFLOOR
   Branch,5,WATER DISHWASHER BRANCH_UNIT1_BACKROW_BOTTOMFLOOR,DHW LOOP_UNIT1_BACKROW_BOTTOMFLOOR,Plant Demand,WATER DISHWASHER INLET NODE_UNIT1_BACKROW_BOTTOMFLOOR,WATER DISHWASHER OUTLET NODE_UNIT1_BACKROW_BOTTOMFLOOR
   Branch,6,WATER BATH BRANCH_UNIT1_BACKROW_BOTTOMFLOOR,DHW LOOP_UNIT1_BACKROW_BOTTOMFLOOR,Plant Demand,WATER BATH INLET NODE_UNIT1_BACKROW_BOTTOMFLOOR,WATER BATH OUTLET NODE_UNIT1_BACKROW_BOTTOMFLOOR
   Branch,7,MAINS MAKEUP BRANCH_UNIT1_BACKROW_BOTTOMFLOOR,DHW LOOP_UNIT1_BACKROW_BOTTOMFLOOR,Plant Demand,MAINS MAKEUP PIPE INLET NODE_UNIT1_BACKROW_BOTTOMFLOOR,MAINS MAKEUP NODE_UNIT1_BACKROW_BOTTOMFLOOR
 Branch List,27,DHW SUPPLY BRANCHES_UNIT2_BACKROW_BOTTOMFLOOR,DHW LOOP_UNIT2_BACKROW_BOTTOMFLOOR,Plant Supply,3
   Branch,1,MAINS INLET BRANCH_UNIT2_BACKROW_BOTTOMFLOOR,DHW LOOP_UNIT2_BACKROW_BOTTOMFLOOR,Plant Supply,MAINS INLET NODE_UNIT2_BACKROW_BOTTOMFLOOR,MAINS PRESSURE OUTLET NODE_UNIT2_BACKROW_BOTTOMFLOOR
   Branch,2,WATER HEATER BRANCH_UNIT2_BACKROW_BOTTOMFLOOR,DHW LOOP_UNIT2_BACKROW_BOTTOMFLOOR,Plant Supply,WATER HEATER USE INLET NODE_UNIT2_BACKROW_BOTTOMFLOOR,WATER HEATER USE OUTLET NODE_UNIT2_BACKROW_BOTTOMFLOOR
   Branch,3,DHW SUPPLY OUTLET BRANCH_UNIT2_BACKROW_BOTTOMFLOOR,DHW LOOP_UNIT2_BACKROW_BOTTOMFLOOR,Plant Supply,DHW SUPPLY OUTLET PIPE INLET NODE_UNIT2_BACKROW_BOTTOMFLOOR,DHW SUPPLY OUTLET NODE_UNIT2_BACKROW_BOTTOMFLOOR
 Branch List,28,DHW DEMAND BRANCHES_UNIT2_BACKROW_BOTTOMFLOOR,DHW LOOP_UNIT2_BACKROW_BOTTOMFLOOR,Plant Demand,7
   Branch,1,DHW DEMAND INLET BRANCH_UNIT2_BACKROW_BOTTOMFLOOR,DHW LOOP_UNIT2_BACKROW_BOTTOMFLOOR,Plant Demand,DHW DEMAND INLET NODE_UNIT2_BACKROW_BOTTOMFLOOR,DHW DEMAND INLET PIPE OUTLET NODE_UNIT2_BACKROW_BOTTOMFLOOR
   Branch,2,WATER SINK BRANCH_UNIT2_BACKROW_BOTTOMFLOOR,DHW LOOP_UNIT2_BACKROW_BOTTOMFLOOR,Plant Demand,WATER SINK INLET NODE_UNIT2_BACKROW_BOTTOMFLOOR,WATER SINK OUTLET NODE_UNIT2_BACKROW_BOTTOMFLOOR
   Branch,3,WATER SHOWER BRANCH_UNIT2_BACKROW_BOTTOMFLOOR,DHW LOOP_UNIT2_BACKROW_BOTTOMFLOOR,Plant Demand,WATER SHOWER INLET NODE_UNIT2_BACKROW_BOTTOMFLOOR,WATER SHOWER OUTLET NODE_UNIT2_BACKROW_BOTTOMFLOOR
   Branch,4,WATER CLOTHESWASHER BRANCH_UNIT2_BACKROW_BOTTOMFLOOR,DHW LOOP_UNIT2_BACKROW_BOTTOMFLOOR,Plant Demand,WATER CLOTHESWASHER INLET NODE_UNIT2_BACKROW_BOTTOMFLOOR,WATER CLOTHESWASHER OUTLET NODE_UNIT2_BACKROW_BOTTOMFLOOR
   Branch,5,WATER DISHWASHER BRANCH_UNIT2_BACKROW_BOTTOMFLOOR,DHW LOOP_UNIT2_BACKROW_BOTTOMFLOOR,Plant Demand,WATER DISHWASHER INLET NODE_UNIT2_BACKROW_BOTTOMFLOOR,WATER DISHWASHER OUTLET NODE_UNIT2_BACKROW_BOTTOMFLOOR
   Branch,6,WATER BATH BRANCH_UNIT2_BACKROW_BOTTOMFLOOR,DHW LOOP_UNIT2_BACKROW_BOTTOMFLOOR,Plant Demand,WATER BATH INLET NODE_UNIT2_BACKROW_BOTTOMFLOOR,WATER BATH OUTLET NODE_UNIT2_BACKROW_BOTTOMFLOOR
   Branch,7,MAINS MAKEUP BRANCH_UNIT2_BACKROW_BOTTOMFLOOR,DHW LOOP_UNIT2_BACKROW_BOTTOMFLOOR,Plant Demand,MAINS MAKEUP PIPE INLET NODE_UNIT2_BACKROW_BOTTOMFLOOR,MAINS MAKEUP NODE_UNIT2_BACKROW_BOTTOMFLOOR
 Branch List,29,DHW SUPPLY BRANCHES_UNIT3_BACKROW_BOTTOMFLOOR,DHW LOOP_UNIT3_BACKROW_BOTTOMFLOOR,Plant Supply,3
   Branch,1,MAINS INLET BRANCH_UNIT3_BACKROW_BOTTOMFLOOR,DHW LOOP_UNIT3_BACKROW_BOTTOMFLOOR,Plant Supply,MAINS INLET NODE_UNIT3_BACKROW_BOTTOMFLOOR,MAINS PRESSURE OUTLET NODE_UNIT3_BACKROW_BOTTOMFLOOR
   Branch,2,WATER HEATER BRANCH_UNIT3_BACKROW_BOTTOMFLOOR,DHW LOOP_UNIT3_BACKROW_BOTTOMFLOOR,Plant Supply,WATER HEATER USE INLET NODE_UNIT3_BACKROW_BOTTOMFLOOR,WATER HEATER USE OUTLET NODE_UNIT3_BACKROW_BOTTOMFLOOR
   Branch,3,DHW SUPPLY OUTLET BRANCH_UNIT3_BACKROW_BOTTOMFLOOR,DHW LOOP_UNIT3_BACKROW_BOTTOMFLOOR,Plant Supply,DHW SUPPLY OUTLET PIPE INLET NODE_UNIT3_BACKROW_BOTTOMFLOOR,DHW SUPPLY OUTLET NODE_UNIT3_BACKROW_BOTTOMFLOOR
 Branch List,30,DHW DEMAND BRANCHES_UNIT3_BACKROW_BOTTOMFLOOR,DHW LOOP_UNIT3_BACKROW_BOTTOMFLOOR,Plant Demand,7
   Branch,1,DHW DEMAND INLET BRANCH_UNIT3_BACKROW_BOTTOMFLOOR,DHW LOOP_UNIT3_BACKROW_BOTTOMFLOOR,Plant Demand,DHW DEMAND INLET NODE_UNIT3_BACKROW_BOTTOMFLOOR,DHW DEMAND INLET PIPE OUTLET NODE_UNIT3_BACKROW_BOTTOMFLOOR
   Branch,2,WATER SINK BRANCH_UNIT3_BACKROW_BOTTOMFLOOR,DHW LOOP_UNIT3_BACKROW_BOTTOMFLOOR,Plant Demand,WATER SINK INLET NODE_UNIT3_BACKROW_BOTTOMFLOOR,WATER SINK OUTLET NODE_UNIT3_BACKROW_BOTTOMFLOOR
   Branch,3,WATER SHOWER BRANCH_UNIT3_BACKROW_BOTTOMFLOOR,DHW LOOP_UNIT3_BACKROW_BOTTOMFLOOR,Plant Demand,WATER SHOWER INLET NODE_UNIT3_BACKROW_BOTTOMFLOOR,WATER SHOWER OUTLET NODE_UNIT3_BACKROW_BOTTOMFLOOR
   Branch,4,WATER CLOTHESWASHER BRANCH_UNIT3_BACKROW_BOTTOMFLOOR,DHW LOOP_UNIT3_BACKROW_BOTTOMFLOOR,Plant Demand,WATER CLOTHESWASHER INLET NODE_UNIT3_BACKROW_BOTTOMFLOOR,WATER CLOTHESWASHER OUTLET NODE_UNIT3_BACKROW_BOTTOMFLOOR
   Branch,5,WATER DISHWASHER BRANCH_UNIT3_BACKROW_BOTTOMFLOOR,DHW LOOP_UNIT3_BACKROW_BOTTOMFLOOR,Plant Demand,WATER DISHWASHER INLET NODE_UNIT3_BACKROW_BOTTOMFLOOR,WATER DISHWASHER OUTLET NODE_UNIT3_BACKROW_BOTTOMFLOOR
   Branch,6,WATER BATH BRANCH_UNIT3_BACKROW_BOTTOMFLOOR,DHW LOOP_UNIT3_BACKROW_BOTTOMFLOOR,Plant Demand,WATER BATH INLET NODE_UNIT3_BACKROW_BOTTOMFLOOR,WATER BATH OUTLET NODE_UNIT3_BACKROW_BOTTOMFLOOR
   Branch,7,MAINS MAKEUP BRANCH_UNIT3_BACKROW_BOTTOMFLOOR,DHW LOOP_UNIT3_BACKROW_BOTTOMFLOOR,Plant Demand,MAINS MAKEUP PIPE INLET NODE_UNIT3_BACKROW_BOTTOMFLOOR,MAINS MAKEUP NODE_UNIT3_BACKROW_BOTTOMFLOOR
 Branch List,31,DHW SUPPLY BRANCHES_UNIT1_FRONTROW_MIDDLEFLOOR,DHW LOOP_UNIT1_FRONTROW_MIDDLEFLOOR,Plant Supply,3
   Branch,1,MAINS INLET BRANCH_UNIT1_FRONTROW_MIDDLEFLOOR,DHW LOOP_UNIT1_FRONTROW_MIDDLEFLOOR,Plant Supply,MAINS INLET NODE_UNIT1_FRONTROW_MIDDLEFLOOR,MAINS PRESSURE OUTLET NODE_UNIT1_FRONTROW_MIDDLEFLOOR
   Branch,2,WATER HEATER BRANCH_UNIT1_FRONTROW_MIDDLEFLOOR,DHW LOOP_UNIT1_FRONTROW_MIDDLEFLOOR,Plant Supply,WATER HEATER USE INLET NODE_UNIT1_FRONTROW_MIDDLEFLOOR,WATER HEATER USE OUTLET NODE_UNIT1_FRONTROW_MIDDLEFLOOR
   Branch,3,DHW SUPPLY OUTLET BRANCH_UNIT1_FRONTROW_MIDDLEFLOOR,DHW LOOP_UNIT1_FRONTROW_MIDDLEFLOOR,Plant Supply,DHW SUPPLY OUTLET PIPE INLET NODE_UNIT1_FRONTROW_MIDDLEFLOOR,DHW SUPPLY OUTLET NODE_UNIT1_FRONTROW_MIDDLEFLOOR
 Branch List,32,DHW DEMAND BRANCHES_UNIT1_FRONTROW_MIDDLEFLOOR,DHW LOOP_UNIT1_FRONTROW_MIDDLEFLOOR,Plant Demand,7
   Branch,1,DHW DEMAND INLET BRANCH_UNIT1_FRONTROW_MIDDLEFLOOR,DHW LOOP_UNIT1_FRONTROW_MIDDLEFLOOR,Plant Demand,DHW DEMAND INLET NODE_UNIT1_FRONTROW_MIDDLEFLOOR,DHW DEMAND INLET PIPE OUTLET NODE_UNIT1_FRONTROW_MIDDLEFLOOR
   Branch,2,WATER SINK BRANCH_UNIT1_FRONTROW_MIDDLEFLOOR,DHW LOOP_UNIT1_FRONTROW_MIDDLEFLOOR,Plant Demand,WATER SINK INLET NODE_UNIT1_FRONTROW_MIDDLEFLOOR,WATER SINK OUTLET NODE_UNIT1_FRONTROW_MIDDLEFLOOR
   Branch,3,WATER SHOWER BRANCH_UNIT1_FRONTROW_MIDDLEFLOOR,DHW LOOP_UNIT1_FRONTROW_MIDDLEFLOOR,Plant Demand,WATER SHOWER INLET NODE_UNIT1_FRONTROW_MIDDLEFLOOR,WATER SHOWER OUTLET NODE_UNIT1_FRONTROW_MIDDLEFLOOR
   Branch,4,WATER CLOTHESWASHER BRANCH_UNIT1_FRONTROW_MIDDLEFLOOR,DHW LOOP_UNIT1_FRONTROW_MIDDLEFLOOR,Plant Demand,WATER CLOTHESWASHER INLET NODE_UNIT1_FRONTROW_MIDDLEFLOOR,WATER CLOTHESWASHER OUTLET NODE_UNIT1_FRONTROW_MIDDLEFLOOR
   Branch,5,WATER DISHWASHER BRANCH_UNIT1_FRONTROW_MIDDLEFLOOR,DHW LOOP_UNIT1_FRONTROW_MIDDLEFLOOR,Plant Demand,WATER DISHWASHER INLET NODE_UNIT1_FRONTROW_MIDDLEFLOOR,WATER DISHWASHER OUTLET NODE_UNIT1_FRONTROW_MIDDLEFLOOR
   Branch,6,WATER BATH BRANCH_UNIT1_FRONTROW_MIDDLEFLOOR,DHW LOOP_UNIT1_FRONTROW_MIDDLEFLOOR,Plant Demand,WATER BATH INLET NODE_UNIT1_FRONTROW_MIDDLEFLOOR,WATER BATH OUTLET NODE_UNIT1_FRONTROW_MIDDLEFLOOR
   Branch,7,MAINS MAKEUP BRANCH_UNIT1_FRONTROW_MIDDLEFLOOR,DHW LOOP_UNIT1_FRONTROW_MIDDLEFLOOR,Plant Demand,MAINS MAKEUP PIPE INLET NODE_UNIT1_FRONTROW_MIDDLEFLOOR,MAINS MAKEUP NODE_UNIT1_FRONTROW_MIDDLEFLOOR
 Branch List,33,DHW SUPPLY BRANCHES_UNIT2_FRONTROW_MIDDLEFLOOR,DHW LOOP_UNIT2_FRONTROW_MIDDLEFLOOR,Plant Supply,3
   Branch,1,MAINS INLET BRANCH_UNIT2_FRONTROW_MIDDLEFLOOR,DHW LOOP_UNIT2_FRONTROW_MIDDLEFLOOR,Plant Supply,MAINS INLET NODE_UNIT2_FRONTROW_MIDDLEFLOOR,MAINS PRESSURE OUTLET NODE_UNIT2_FRONTROW_MIDDLEFLOOR
   Branch,2,WATER HEATER BRANCH_UNIT2_FRONTROW_MIDDLEFLOOR,DHW LOOP_UNIT2_FRONTROW_MIDDLEFLOOR,Plant Supply,WATER HEATER USE INLET NODE_UNIT2_FRONTROW_MIDDLEFLOOR,WATER HEATER USE OUTLET NODE_UNIT2_FRONTROW_MIDDLEFLOOR
   Branch,3,DHW SUPPLY OUTLET BRANCH_UNIT2_FRONTROW_MIDDLEFLOOR,DHW LOOP_UNIT2_FRONTROW_MIDDLEFLOOR,Plant Supply,DHW SUPPLY OUTLET PIPE INLET NODE_UNIT2_FRONTROW_MIDDLEFLOOR,DHW SUPPLY OUTLET NODE_UNIT2_FRONTROW_MIDDLEFLOOR
 Branch List,34,DHW DEMAND BRANCHES_UNIT2_FRONTROW_MIDDLEFLOOR,DHW LOOP_UNIT2_FRONTROW_MIDDLEFLOOR,Plant Demand,7
   Branch,1,DHW DEMAND INLET BRANCH_UNIT2_FRONTROW_MIDDLEFLOOR,DHW LOOP_UNIT2_FRONTROW_MIDDLEFLOOR,Plant Demand,DHW DEMAND INLET NODE_UNIT2_FRONTROW_MIDDLEFLOOR,DHW DEMAND INLET PIPE OUTLET NODE_UNIT2_FRONTROW_MIDDLEFLOOR
   Branch,2,WATER SINK BRANCH_UNIT2_FRONTROW_MIDDLEFLOOR,DHW LOOP_UNIT2_FRONTROW_MIDDLEFLOOR,Plant Demand,WATER SINK INLET NODE_UNIT2_FRONTROW_MIDDLEFLOOR,WATER SINK OUTLET NODE_UNIT2_FRONTROW_MIDDLEFLOOR
   Branch,3,WATER SHOWER BRANCH_UNIT2_FRONTROW_MIDDLEFLOOR,DHW LOOP_UNIT2_FRONTROW_MIDDLEFLOOR,Plant Demand,WATER SHOWER INLET NODE_UNIT2_FRONTROW_MIDDLEFLOOR,WATER SHOWER OUTLET NODE_UNIT2_FRONTROW_MIDDLEFLOOR
   Branch,4,WATER CLOTHESWASHER BRANCH_UNIT2_FRONTROW_MIDDLEFLOOR,DHW LOOP_UNIT2_FRONTROW_MIDDLEFLOOR,Plant Demand,WATER CLOTHESWASHER INLET NODE_UNIT2_FRONTROW_MIDDLEFLOOR,WATER CLOTHESWASHER OUTLET NODE_UNIT2_FRONTROW_MIDDLEFLOOR
   Branch,5,WATER DISHWASHER BRANCH_UNIT2_FRONTROW_MIDDLEFLOOR,DHW LOOP_UNIT2_FRONTROW_MIDDLEFLOOR,Plant Demand,WATER DISHWASHER INLET NODE_UNIT2_FRONTROW_MIDDLEFLOOR,WATER DISHWASHER OUTLET NODE_UNIT2_FRONTROW_MIDDLEFLOOR
   Branch,6,WATER BATH BRANCH_UNIT2_FRONTROW_MIDDLEFLOOR,DHW LOOP_UNIT2_FRONTROW_MIDDLEFLOOR,Plant Demand,WATER BATH INLET NODE_UNIT2_FRONTROW_MIDDLEFLOOR,WATER BATH OUTLET NODE_UNIT2_FRONTROW_MIDDLEFLOOR
   Branch,7,MAINS MAKEUP BRANCH_UNIT2_FRONTROW_MIDDLEFLOOR,DHW LOOP_UNIT2_FRONTROW_MIDDLEFLOOR,Plant Demand,MAINS MAKEUP PIPE INLET NODE_UNIT2_FRONTROW_MIDDLEFLOOR,MAINS MAKEUP NODE_UNIT2_FRONTROW_MIDDLEFLOOR
 Branch List,35,DHW SUPPLY BRANCHES_UNIT3_FRONTROW_MIDDLEFLOOR,DHW LOOP_UNIT3_FRONTROW_MIDDLEFLOOR,Plant Supply,3
   Branch,1,MAINS INLET BRANCH_UNIT3_FRONTROW_MIDDLEFLOOR,DHW LOOP_UNIT3_FRONTROW_MIDDLEFLOOR,Plant Supply,MAINS INLET NODE_UNIT3_FRONTROW_MIDDLEFLOOR,MAINS PRESSURE OUTLET NODE_UNIT3_FRONTROW_MIDDLEFLOOR
   Branch,2,WATER HEATER BRANCH_UNIT3_FRONTROW_MIDDLEFLOOR,DHW LOOP_UNIT3_FRONTROW_MIDDLEFLOOR,Plant Supply,WATER HEATER USE INLET NODE_UNIT3_FRONTROW_MIDDLEFLOOR,WATER HEATER USE OUTLET NODE_UNIT3_FRONTROW_MIDDLEFLOOR
   Branch,3,DHW SUPPLY OUTLET BRANCH_UNIT3_FRONTROW_MIDDLEFLOOR,DHW LOOP_UNIT3_FRONTROW_MIDDLEFLOOR,Plant Supply,DHW SUPPLY OUTLET PIPE INLET NODE_UNIT3_FRONTROW_MIDDLEFLOOR,DHW SUPPLY OUTLET NODE_UNIT3_FRONTROW_MIDDLEFLOOR
 Branch List,36,DHW DEMAND BRANCHES_UNIT3_FRONTROW_MIDDLEFLOOR,DHW LOOP_UNIT3_FRONTROW_MIDDLEFLOOR,Plant Demand,7
   Branch,1,DHW DEMAND INLET BRANCH_UNIT3_FRONTROW_MIDDLEFLOOR,DHW LOOP_UNIT3_FRONTROW_MIDDLEFLOOR,Plant Demand,DHW DEMAND INLET NODE_UNIT3_FRONTROW_MIDDLEFLOOR,DHW DEMAND INLET PIPE OUTLET NODE_UNIT3_FRONTROW_MIDDLEFLOOR
   Branch,2,WATER SINK BRANCH_UNIT3_FRONTROW_MIDDLEFLOOR,DHW LOOP_UNIT3_FRONTROW_MIDDLEFLOOR,Plant Demand,WATER SINK INLET NODE_UNIT3_FRONTROW_MIDDLEFLOOR,WATER SINK OUTLET NODE_UNIT3_FRONTROW_MIDDLEFLOOR
   Branch,3,WATER SHOWER BRANCH_UNIT3_FRONTROW_MIDDLEFLOOR,DHW LOOP_UNIT3_FRONTROW_MIDDLEFLOOR,Plant Demand,WATER SHOWER INLET NODE_UNIT3_FRONTROW_MIDDLEFLOOR,WATER SHOWER OUTLET NODE_UNIT3_FRONTROW_MIDDLEFLOOR
   Branch,4,WATER CLOTHESWASHER BRANCH_UNIT3_FRONTROW_MIDDLEFLOOR,DHW LOOP_UNIT3_FRONTROW_MIDDLEFLOOR,Plant Demand,WATER CLOTHESWASHER INLET NODE_UNIT3_FRONTROW_MIDDLEFLOOR,WATER CLOTHESWASHER OUTLET NODE_UNIT3_FRONTROW_MIDDLEFLOOR
   Branch,5,WATER DISHWASHER BRANCH_UNIT3_FRONTROW_MIDDLEFLOOR,DHW LOOP_UNIT3_FRONTROW_MIDDLEFLOOR,Plant Demand,WATER DISHWASHER INLET NODE_UNIT3_FRONTROW_MIDDLEFLOOR,WATER DISHWASHER OUTLET NODE_UNIT3_FRONTROW_MIDDLEFLOOR
   Branch,6,WATER BATH BRANCH_UNIT3_FRONTROW_MIDDLEFLOOR,DHW LOOP_UNIT3_FRONTROW_MIDDLEFLOOR,Plant Demand,WATER BATH INLET NODE_UNIT3_FRONTROW_MIDDLEFLOOR,WATER BATH OUTLET NODE_UNIT3_FRONTROW_MIDDLEFLOOR
   Branch,7,MAINS MAKEUP BRANCH_UNIT3_FRONTROW_MIDDLEFLOOR,DHW LOOP_UNIT3_FRONTROW_MIDDLEFLOOR,Plant Demand,MAINS MAKEUP PIPE INLET NODE_UNIT3_FRONTROW_MIDDLEFLOOR,MAINS MAKEUP NODE_UNIT3_FRONTROW_MIDDLEFLOOR
 Branch List,37,DHW SUPPLY BRANCHES_UNIT1_BACKROW_MIDDLEFLOOR,DHW LOOP_UNIT1_BACKROW_MIDDLEFLOOR,Plant Supply,3
   Branch,1,MAINS INLET BRANCH_UNIT1_BACKROW_MIDDLEFLOOR,DHW LOOP_UNIT1_BACKROW_MIDDLEFLOOR,Plant Supply,MAINS INLET NODE_UNIT1_BACKROW_MIDDLEFLOOR,MAINS PRESSURE OUTLET NODE_UNIT1_BACKROW_MIDDLEFLOOR
   Branch,2,WATER HEATER BRANCH_UNIT1_BACKROW_MIDDLEFLOOR,DHW LOOP_UNIT1_BACKROW_MIDDLEFLOOR,Plant Supply,WATER HEATER USE INLET NODE_UNIT1_BACKROW_MIDDLEFLOOR,WATER HEATER USE OUTLET NODE_UNIT1_BACKROW_MIDDLEFLOOR
   Branch,3,DHW SUPPLY OUTLET BRANCH_UNIT1_BACKROW_MIDDLEFLOOR,DHW LOOP_UNIT1_BACKROW_MIDDLEFLOOR,Plant Supply,DHW SUPPLY OUTLET PIPE INLET NODE_UNIT1_BACKROW_MIDDLEFLOOR,DHW SUPPLY OUTLET NODE_UNIT1_BACKROW_MIDDLEFLOOR
 Branch List,38,DHW DEMAND BRANCHES_UNIT1_BACKROW_MIDDLEFLOOR,DHW LOOP_UNIT1_BACKROW_MIDDLEFLOOR,Plant Demand,7
   Branch,1,DHW DEMAND INLET BRANCH_UNIT1_BACKROW_MIDDLEFLOOR,DHW LOOP_UNIT1_BACKROW_MIDDLEFLOOR,Plant Demand,DHW DEMAND INLET NODE_UNIT1_BACKROW_MIDDLEFLOOR,DHW DEMAND INLET PIPE OUTLET NODE_UNIT1_BACKROW_MIDDLEFLOOR
   Branch,2,WATER SINK BRANCH_UNIT1_BACKROW_MIDDLEFLOOR,DHW LOOP_UNIT1_BACKROW_MIDDLEFLOOR,Plant Demand,WATER SINK INLET NODE_UNIT1_BACKROW_MIDDLEFLOOR,WATER SINK OUTLET NODE_UNIT1_BACKROW_MIDDLEFLOOR
   Branch,3,WATER SHOWER BRANCH_UNIT1_BACKROW_MIDDLEFLOOR,DHW LOOP_UNIT1_BACKROW_MIDDLEFLOOR,Plant Demand,WATER SHOWER INLET NODE_UNIT1_BACKROW_MIDDLEFLOOR,WATER SHOWER OUTLET NODE_UNIT1_BACKROW_MIDDLEFLOOR
   Branch,4,WATER CLOTHESWASHER BRANCH_UNIT1_BACKROW_MIDDLEFLOOR,DHW LOOP_UNIT1_BACKROW_MIDDLEFLOOR,Plant Demand,WATER CLOTHESWASHER INLET NODE_UNIT1_BACKROW_MIDDLEFLOOR,WATER CLOTHESWASHER OUTLET NODE_UNIT1_BACKROW_MIDDLEFLOOR
   Branch,5,WATER DISHWASHER BRANCH_UNIT1_BACKROW_MIDDLEFLOOR,DHW LOOP_UNIT1_BACKROW_MIDDLEFLOOR,Plant Demand,WATER DISHWASHER INLET NODE_UNIT1_BACKROW_MIDDLEFLOOR,WATER DISHWASHER OUTLET NODE_UNIT1_BACKROW_MIDDLEFLOOR
   Branch,6,WATER BATH BRANCH_UNIT1_BACKROW_MIDDLEFLOOR,DHW LOOP_UNIT1_BACKROW_MIDDLEFLOOR,Plant Demand,WATER BATH INLET NODE_UNIT1_BACKROW_MIDDLEFLOOR,WATER BATH OUTLET NODE_UNIT1_BACKROW_MIDDLEFLOOR
   Branch,7,MAINS MAKEUP BRANCH_UNIT1_BACKROW_MIDDLEFLOOR,DHW LOOP_UNIT1_BACKROW_MIDDLEFLOOR,Plant Demand,MAINS MAKEUP PIPE INLET NODE_UNIT1_BACKROW_MIDDLEFLOOR,MAINS MAKEUP NODE_UNIT1_BACKROW_MIDDLEFLOOR
 Branch List,39,DHW SUPPLY BRANCHES_UNIT2_BACKROW_MIDDLEFLOOR,DHW LOOP_UNIT2_BACKROW_MIDDLEFLOOR,Plant Supply,3
   Branch,1,MAINS INLET BRANCH_UNIT2_BACKROW_MIDDLEFLOOR,DHW LOOP_UNIT2_BACKROW_MIDDLEFLOOR,Plant Supply,MAINS INLET NODE_UNIT2_BACKROW_MIDDLEFLOOR,MAINS PRESSURE OUTLET NODE_UNIT2_BACKROW_MIDDLEFLOOR
   Branch,2,WATER HEATER BRANCH_UNIT2_BACKROW_MIDDLEFLOOR,DHW LOOP_UNIT2_BACKROW_MIDDLEFLOOR,Plant Supply,WATER HEATER USE INLET NODE_UNIT2_BACKROW_MIDDLEFLOOR,WATER HEATER USE OUTLET NODE_UNIT2_BACKROW_MIDDLEFLOOR
   Branch,3,DHW SUPPLY OUTLET BRANCH_UNIT2_BACKROW_MIDDLEFLOOR,DHW LOOP_UNIT2_BACKROW_MIDDLEFLOOR,Plant Supply,DHW SUPPLY OUTLET PIPE INLET NODE_UNIT2_BACKROW_MIDDLEFLOOR,DHW SUPPLY OUTLET NODE_UNIT2_BACKROW_MIDDLEFLOOR
 Branch List,40,DHW DEMAND BRANCHES_UNIT2_BACKROW_MIDDLEFLOOR,DHW LOOP_UNIT2_BACKROW_MIDDLEFLOOR,Plant Demand,7
   Branch,1,DHW DEMAND INLET BRANCH_UNIT2_BACKROW_MIDDLEFLOOR,DHW LOOP_UNIT2_BACKROW_MIDDLEFLOOR,Plant Demand,DHW DEMAND INLET NODE_UNIT2_BACKROW_MIDDLEFLOOR,DHW DEMAND INLET PIPE OUTLET NODE_UNIT2_BACKROW_MIDDLEFLOOR
   Branch,2,WATER SINK BRANCH_UNIT2_BACKROW_MIDDLEFLOOR,DHW LOOP_UNIT2_BACKROW_MIDDLEFLOOR,Plant Demand,WATER SINK INLET NODE_UNIT2_BACKROW_MIDDLEFLOOR,WATER SINK OUTLET NODE_UNIT2_BACKROW_MIDDLEFLOOR
   Branch,3,WATER SHOWER BRANCH_UNIT2_BACKROW_MIDDLEFLOOR,DHW LOOP_UNIT2_BACKROW_MIDDLEFLOOR,Plant Demand,WATER SHOWER INLET NODE_UNIT2_BACKROW_MIDDLEFLOOR,WATER SHOWER OUTLET NODE_UNIT2_BACKROW_MIDDLEFLOOR
   Branch,4,WATER CLOTHESWASHER BRANCH_UNIT2_BACKROW_MIDDLEFLOOR,DHW LOOP_UNIT2_BACKROW_MIDDLEFLOOR,Plant Demand,WATER CLOTHESWASHER INLET NODE_UNIT2_BACKROW_MIDDLEFLOOR,WATER CLOTHESWASHER OUTLET NODE_UNIT2_BACKROW_MIDDLEFLOOR
   Branch,5,WATER DISHWASHER BRANCH_UNIT2_BACKROW_MIDDLEFLOOR,DHW LOOP_UNIT2_BACKROW_MIDDLEFLOOR,Plant Demand,WATER DISHWASHER INLET NODE_UNIT2_BACKROW_MIDDLEFLOOR,WATER DISHWASHER OUTLET NODE_UNIT2_BACKROW_MIDDLEFLOOR
   Branch,6,WATER BATH BRANCH_UNIT2_BACKROW_MIDDLEFLOOR,DHW LOOP_UNIT2_BACKROW_MIDDLEFLOOR,Plant Demand,WATER BATH INLET NODE_UNIT2_BACKROW_MIDDLEFLOOR,WATER BATH OUTLET NODE_UNIT2_BACKROW_MIDDLEFLOOR
   Branch,7,MAINS MAKEUP BRANCH_UNIT2_BACKROW_MIDDLEFLOOR,DHW LOOP_UNIT2_BACKROW_MIDDLEFLOOR,Plant Demand,MAINS MAKEUP PIPE INLET NODE_UNIT2_BACKROW_MIDDLEFLOOR,MAINS MAKEUP NODE_UNIT2_BACKROW_MIDDLEFLOOR
 Branch List,41,DHW SUPPLY BRANCHES_UNIT3_BACKROW_MIDDLEFLOOR,DHW LOOP_UNIT3_BACKROW_MIDDLEFLOOR,Plant Supply,3
   Branch,1,MAINS INLET BRANCH_UNIT3_BACKROW_MIDDLEFLOOR,DHW LOOP_UNIT3_BACKROW_MIDDLEFLOOR,Plant Supply,MAINS INLET NODE_UNIT3_BACKROW_MIDDLEFLOOR,MAINS PRESSURE OUTLET NODE_UNIT3_BACKROW_MIDDLEFLOOR
   Branch,2,WATER HEATER BRANCH_UNIT3_BACKROW_MIDDLEFLOOR,DHW LOOP_UNIT3_BACKROW_MIDDLEFLOOR,Plant Supply,WATER HEATER USE INLET NODE_UNIT3_BACKROW_MIDDLEFLOOR,WATER HEATER USE OUTLET NODE_UNIT3_BACKROW_MIDDLEFLOOR
   Branch,3,DHW SUPPLY OUTLET BRANCH_UNIT3_BACKROW_MIDDLEFLOOR,DHW LOOP_UNIT3_BACKROW_MIDDLEFLOOR,Plant Supply,DHW SUPPLY OUTLET PIPE INLET NODE_UNIT3_BACKROW_MIDDLEFLOOR,DHW SUPPLY OUTLET NODE_UNIT3_BACKROW_MIDDLEFLOOR
 Branch List,42,DHW DEMAND BRANCHES_UNIT3_BACKROW_MIDDLEFLOOR,DHW LOOP_UNIT3_BACKROW_MIDDLEFLOOR,Plant Demand,7
   Branch,1,DHW DEMAND INLET BRANCH_UNIT3_BACKROW_MIDDLEFLOOR,DHW LOOP_UNIT3_BACKROW_MIDDLEFLOOR,Plant Demand,DHW DEMAND INLET NODE_UNIT3_BACKROW_MIDDLEFLOOR,DHW DEMAND INLET PIPE OUTLET NODE_UNIT3_BACKROW_MIDDLEFLOOR
[...]
 Non-Parent Node Connection,ZONE OUTLET NODE_UNIT1_FRONTROW_MIDDLEFLOOR,AIRLOOPHVAC:ZONEMIXER,ZONE RETURN AIR MIXER_UNIT1_FRONTROW_MIDDLEFLOOR,Inlet,1
 Non-Parent Node Connection,RETURN AIR MIXER OUTLET_UNIT2_FRONTROW_MIDDLEFLOOR,AIRLOOPHVAC:ZONEMIXER,ZONE RETURN AIR MIXER_UNIT2_FRONTROW_MIDDLEFLOOR,Outlet,1
 Non-Parent Node Connection,ZONE OUTLET NODE_UNIT2_FRONTROW_MIDDLEFLOOR,AIRLOOPHVAC:ZONEMIXER,ZONE RETURN AIR MIXER_UNIT2_FRONTROW_MIDDLEFLOOR,Inlet,1
 Non-Parent Node Connection,RETURN AIR MIXER OUTLET_UNIT3_FRONTROW_MIDDLEFLOOR,AIRLOOPHVAC:ZONEMIXER,ZONE RETURN AIR MIXER_UNIT3_FRONTROW_MIDDLEFLOOR,Outlet,1
 Non-Parent Node Connection,ZONE OUTLET NODE_UNIT3_FRONTROW_MIDDLEFLOOR,AIRLOOPHVAC:ZONEMIXER,ZONE RETURN AIR MIXER_UNIT3_FRONTROW_MIDDLEFLOOR,Inlet,1
 Non-Parent Node Connection,RETURN AIR MIXER OUTLET_UNIT1_BACKROW_MIDDLEFLOOR,AIRLOOPHVAC:ZONEMIXER,ZONE RETURN AIR MIXER_UNIT1_BACKROW_MIDDLEFLOOR,Outlet,1
 Non-Parent Node Connection,ZONE OUTLET NODE_UNIT1_BACKROW_MIDDLEFLOOR,AIRLOOPHVAC:ZONEMIXER,ZONE RETURN AIR MIXER_UNIT1_BACKROW_MIDDLEFLOOR,Inlet,1
 Non-Parent Node Connection,RETURN AIR MIXER OUTLET_UNIT2_BACKROW_MIDDLEFLOOR,AIRLOOPHVAC:ZONEMIXER,ZONE RETURN AIR MIXER_UNIT2_BACKROW_MIDDLEFLOOR,Outlet,1
 Non-Parent Node Connection,ZONE OUTLET NODE_UNIT2_BACKROW_MIDDLEFLOOR,AIRLOOPHVAC:ZONEMIXER,ZONE RETURN AIR MIXER_UNIT2_BACKROW_MIDDLEFLOOR,Inlet,1
 Non-Parent Node Connection,RETURN AIR MIXER OUTLET_UNIT3_BACKROW_MIDDLEFLOOR,AIRLOOPHVAC:ZONEMIXER,ZONE RETURN AIR MIXER_UNIT3_BACKROW_MIDDLEFLOOR,Outlet,1
 Non-Parent Node Connection,ZONE OUTLET NODE_UNIT3_BACKROW_MIDDLEFLOOR,AIRLOOPHVAC:ZONEMIXER,ZONE RETURN AIR MIXER_UNIT3_BACKROW_MIDDLEFLOOR,Inlet,1
 Non-Parent Node Connection,RETURN AIR MIXER OUTLET_UNIT1_FRONTROW_TOPFLOOR,AIRLOOPHVAC:ZONEMIXER,ZONE RETURN AIR MIXER_UNIT1_FRONTROW_TOPFLOOR,Outlet,1
 Non-Parent Node Connection,ZONE OUTLET NODE_UNIT1_FRONTROW_TOPFLOOR,AIRLOOPHVAC:ZONEMIXER,ZONE RETURN AIR MIXER_UNIT1_FRONTROW_TOPFLOOR,Inlet,1
 Non-Parent Node Connection,RETURN AIR MIXER OUTLET_UNIT2_FRONTROW_TOPFLOOR,AIRLOOPHVAC:ZONEMIXER,ZONE RETURN AIR MIXER_UNIT2_FRONTROW_TOPFLOOR,Outlet,1
 Non-Parent Node Connection,ZONE OUTLET NODE_UNIT2_FRONTROW_TOPFLOOR,AIRLOOPHVAC:ZONEMIXER,ZONE RETURN AIR MIXER_UNIT2_FRONTROW_TOPFLOOR,Inlet,1
 Non-Parent Node Connection,RETURN AIR MIXER OUTLET_UNIT3_FRONTROW_TOPFLOOR,AIRLOOPHVAC:ZONEMIXER,ZONE RETURN AIR MIXER_UNIT3_FRONTROW_TOPFLOOR,Outlet,1
 Non-Parent Node Connection,ZONE OUTLET NODE_UNIT3_FRONTROW_TOPFLOOR,AIRLOOPHVAC:ZONEMIXER,ZONE RETURN AIR MIXER_UNIT3_FRONTROW_TOPFLOOR,Inlet,1
 Non-Parent Node Connection,RETURN AIR MIXER OUTLET_UNIT1_BACKROW_TOPFLOOR,AIRLOOPHVAC:ZONEMIXER,ZONE RETURN AIR MIXER_UNIT1_BACKROW_TOPFLOOR,Outlet,1
 Non-Parent Node Connection,ZONE OUTLET NODE_UNIT1_BACKROW_TOPFLOOR,AIRLOOPHVAC:ZONEMIXER,ZONE RETURN AIR MIXER_UNIT1_BACKROW_TOPFLOOR,Inlet,1
 Non-Parent Node Connection,RETURN AIR MIXER OUTLET_UNIT2_BACKROW_TOPFLOOR,AIRLOOPHVAC:ZONEMIXER,ZONE RETURN AIR MIXER_UNIT2_BACKROW_TOPFLOOR,Outlet,1
 Non-Parent Node Connection,ZONE OUTLET NODE_UNIT2_BACKROW_TOPFLOOR,AIRLOOPHVAC:ZONEMIXER,ZONE RETURN AIR MIXER_UNIT2_BACKROW_TOPFLOOR,Inlet,1
 Non-Parent Node Connection,RETURN AIR MIXER OUTLET_UNIT3_BACKROW_TOPFLOOR,AIRLOOPHVAC:ZONEMIXER,ZONE RETURN AIR MIXER_UNIT3_BACKROW_TOPFLOOR,Outlet,1
 Non-Parent Node Connection,ZONE OUTLET NODE_UNIT3_BACKROW_TOPFLOOR,AIRLOOPHVAC:ZONEMIXER,ZONE RETURN AIR MIXER_UNIT3_BACKROW_TOPFLOOR,Inlet,1
 Non-Parent Node Connection,HEATING COIL AIR INLET NODE_UNIT1_FRONTROW_BOTTOMFLOOR,COIL:HEATING:FUEL,MAIN FUEL HEATING COIL_UNIT1_FRONTROW_BOTTOMFLOOR,Inlet,1
 Non-Parent Node Connection,AIR LOOP OUTLET NODE_UNIT1_FRONTROW_BOTTOMFLOOR,COIL:HEATING:FUEL,MAIN FUEL HEATING COIL_UNIT1_FRONTROW_BOTTOMFLOOR,Outlet,1
 Non-Parent Node Connection,HEATING COIL AIR INLET NODE_UNIT2_FRONTROW_BOTTOMFLOOR,COIL:HEATING:FUEL,MAIN FUEL HEATING COIL_UNIT2_FRONTROW_BOTTOMFLOOR,Inlet,1
 Non-Parent Node Connection,AIR LOOP OUTLET NODE_UNIT2_FRONTROW_BOTTOMFLOOR,COIL:HEATING:FUEL,MAIN FUEL HEATING COIL_UNIT2_FRONTROW_BOTTOMFLOOR,Outlet,1
 Non-Parent Node Connection,HEATING COIL AIR INLET NODE_UNIT3_FRONTROW_BOTTOMFLOOR,COIL:HEATING:FUEL,MAIN FUEL HEATING COIL_UNIT3_FRONTROW_BOTTOMFLOOR,Inlet,1
 Non-Parent Node Connection,AIR LOOP OUTLET NODE_UNIT3_FRONTROW_BOTTOMFLOOR,COIL:HEATING:FUEL,MAIN FUEL HEATING COIL_UNIT3_FRONTROW_BOTTOMFLOOR,Outlet,1
 Non-Parent Node Connection,HEATING COIL AIR INLET NODE_UNIT1_BACKROW_BOTTOMFLOOR,COIL:HEATING:FUEL,MAIN FUEL HEATING COIL_UNIT1_BACKROW_BOTTOMFLOOR,Inlet,1
 Non-Parent Node Connection,AIR LOOP OUTLET NODE_UNIT1_BACKROW_BOTTOMFLOOR,COIL:HEATING:FUEL,MAIN FUEL HEATING COIL_UNIT1_BACKROW_BOTTOMFLOOR,Outlet,1
 Non-Parent Node Connection,HEATING COIL AIR INLET NODE_UNIT2_BACKROW_BOTTOMFLOOR,COIL:HEATING:FUEL,MAIN FUEL HEATING COIL_UNIT2_BACKROW_BOTTOMFLOOR,Inlet,1
 Non-Parent Node Connection,AIR LOOP OUTLET NODE_UNIT2_BACKROW_BOTTOMFLOOR,COIL:HEATING:FUEL,MAIN FUEL HEATING COIL_UNIT2_BACKROW_BOTTOMFLOOR,Outlet,1
 Non-Parent Node Connection,HEATING COIL AIR INLET NODE_UNIT3_BACKROW_BOTTOMFLOOR,COIL:HEATING:FUEL,MAIN FUEL HEATING COIL_UNIT3_BACKROW_BOTTOMFLOOR,Inlet,1
 Non-Parent Node Connection,AIR LOOP OUTLET NODE_UNIT3_BACKROW_BOTTOMFLOOR,COIL:HEATING:FUEL,MAIN FUEL HEATING COIL_UNIT3_BACKROW_BOTTOMFLOOR,Outlet,1
 Non-Parent Node Connection,HEATING COIL AIR INLET NODE_UNIT1_FRONTROW_MIDDLEFLOOR,COIL:HEATING:FUEL,MAIN FUEL HEATING COIL_UNIT1_FRONTROW_MIDDLEFLOOR,Inlet,1
 Non-Parent Node Connection,AIR LOOP OUTLET NODE_UNIT1_FRONTROW_MIDDLEFLOOR,COIL:HEATING:FUEL,MAIN FUEL HEATING COIL_UNIT1_FRONTROW_MIDDLEFLOOR,Outlet,1
 Non-Parent Node Connection,HEATING COIL AIR INLET NODE_UNIT2_FRONTROW_MIDDLEFLOOR,COIL:HEATING:FUEL,MAIN FUEL HEATING COIL_UNIT2_FRONTROW_MIDDLEFLOOR,Inlet,1
 Non-Parent Node Connection,AIR LOOP OUTLET NODE_UNIT2_FRONTROW_MIDDLEFLOOR,COIL:HEATING:FUEL,MAIN FUEL HEATING COIL_UNIT2_FRONTROW_MIDDLEFLOOR,Outlet,1
 Non-Parent Node Connection,HEATING COIL AIR INLET NODE_UNIT3_FRONTROW_MIDDLEFLOOR,COIL:HEATING:FUEL,MAIN FUEL HEATING COIL_UNIT3_FRONTROW_MIDDLEFLOOR,Inlet,1
 Non-Parent Node Connection,AIR LOOP OUTLET NODE_UNIT3_FRONTROW_MIDDLEFLOOR,COIL:HEATING:FUEL,MAIN FUEL HEATING COIL_UNIT3_FRONTROW_MIDDLEFLOOR,Outlet,1
 Non-Parent Node Connection,HEATING COIL AIR INLET NODE_UNIT1_BACKROW_MIDDLEFLOOR,COIL:HEATING:FUEL,MAIN FUEL HEATING COIL_UNIT1_BACKROW_MIDDLEFLOOR,Inlet,1
 Non-Parent Node Connection,AIR LOOP OUTLET NODE_UNIT1_BACKROW_MIDDLEFLOOR,COIL:HEATING:FUEL,MAIN FUEL HEATING COIL_UNIT1_BACKROW_MIDDLEFLOOR,Outlet,1
 Non-Parent Node Connection,HEATING COIL AIR INLET NODE_UNIT2_BACKROW_MIDDLEFLOOR,COIL:HEATING:FUEL,MAIN FUEL HEATING COIL_UNIT2_BACKROW_MIDDLEFLOOR,Inlet,1
 Non-Parent Node Connection,AIR LOOP OUTLET NODE_UNIT2_BACKROW_MIDDLEFLOOR,COIL:HEATING:FUEL,MAIN FUEL HEATING COIL_UNIT2_BACKROW_MIDDLEFLOOR,Outlet,1
 Non-Parent Node Connection,HEATING COIL AIR INLET NODE_UNIT3_BACKROW_MIDDLEFLOOR,COIL:HEATING:FUEL,MAIN FUEL HEATING COIL_UNIT3_BACKROW_MIDDLEFLOOR,Inlet,1
 Non-Parent Node Connection,AIR LOOP OUTLET NODE_UNIT3_BACKROW_MIDDLEFLOOR,COIL:HEATING:FUEL,MAIN FUEL HEATING COIL_UNIT3_BACKROW_MIDDLEFLOOR,Outlet,1
 Non-Parent Node Connection,HEATING COIL AIR INLET NODE_UNIT1_FRONTROW_TOPFLOOR,COIL:HEATING:FUEL,MAIN FUEL HEATING COIL_UNIT1_FRONTROW_TOPFLOOR,Inlet,1
 Non-Parent Node Connection,AIR LOOP OUTLET NODE_UNIT1_FRONTROW_TOPFLOOR,COIL:HEATING:FUEL,MAIN FUEL HEATING COIL_UNIT1_FRONTROW_TOPFLOOR,Outlet,1
 Non-Parent Node Connection,HEATING COIL AIR INLET NODE_UNIT2_FRONTROW_TOPFLOOR,COIL:HEATING:FUEL,MAIN FUEL HEATING COIL_UNIT2_FRONTROW_TOPFLOOR,Inlet,1
 Non-Parent Node Connection,AIR LOOP OUTLET NODE_UNIT2_FRONTROW_TOPFLOOR,COIL:HEATING:FUEL,MAIN FUEL HEATING COIL_UNIT2_FRONTROW_TOPFLOOR,Outlet,1
 Non-Parent Node Connection,HEATING COIL AIR INLET NODE_UNIT3_FRONTROW_TOPFLOOR,COIL:HEATING:FUEL,MAIN FUEL HEATING COIL_UNIT3_FRONTROW_TOPFLOOR,Inlet,1
 Non-Parent Node Connection,AIR LOOP OUTLET NODE_UNIT3_FRONTROW_TOPFLOOR,COIL:HEATING:FUEL,MAIN FUEL HEATING COIL_UNIT3_FRONTROW_TOPFLOOR,Outlet,1
 Non-Parent Node Connection,HEATING COIL AIR INLET NODE_UNIT1_BACKROW_TOPFLOOR,COIL:HEATING:FUEL,MAIN FUEL HEATING COIL_UNIT1_BACKROW_TOPFLOOR,Inlet,1
 Non-Parent Node Connection,AIR LOOP OUTLET NODE_UNIT1_BACKROW_TOPFLOOR,COIL:HEATING:FUEL,MAIN FUEL HEATING COIL_UNIT1_BACKROW_TOPFLOOR,Outlet,1
 Non-Parent Node Connection,HEATING COIL AIR INLET NODE_UNIT2_BACKROW_TOPFLOOR,COIL:HEATING:FUEL,MAIN FUEL HEATING COIL_UNIT2_BACKROW_TOPFLOOR,Inlet,1
 Non-Parent Node Connection,AIR LOOP OUTLET NODE_UNIT2_BACKROW_TOPFLOOR,COIL:HEATING:FUEL,MAIN FUEL HEATING COIL_UNIT2_BACKROW_TOPFLOOR,Outlet,1
 Non-Parent Node Connection,HEATING COIL AIR INLET NODE_UNIT3_BACKROW_TOPFLOOR,COIL:HEATING:FUEL,MAIN FUEL HEATING COIL_UNIT3_BACKROW_TOPFLOOR,Inlet,1
 Non-Parent Node Connection,AIR LOOP OUTLET NODE_UNIT3_BACKROW_TOPFLOOR,COIL:HEATING:FUEL,MAIN FUEL HEATING COIL_UNIT3_BACKROW_TOPFLOOR,Outlet,1
 Non-Parent Node Connection,COOLING COIL AIR INLET NODE_UNIT1_FRONTROW_BOTTOMFLOOR,COIL:COOLING:DX:SINGLESPEED,DX COOLING COIL_UNIT1_FRONTROW_BOTTOMFLOOR,Inlet,1
 Non-Parent Node Connection,HEATING COIL AIR INLET NODE_UNIT1_FRONTROW_BOTTOMFLOOR,COIL:COOLING:DX:SINGLESPEED,DX COOLING COIL_UNIT1_FRONTROW_BOTTOMFLOOR,Outlet,1
 Non-Parent Node Connection,COOLING COIL AIR INLET NODE_UNIT2_FRONTROW_BOTTOMFLOOR,COIL:COOLING:DX:SINGLESPEED,DX COOLING COIL_UNIT2_FRONTROW_BOTTOMFLOOR,Inlet,1
 Non-Parent Node Connection,HEATING COIL AIR INLET NODE_UNIT2_FRONTROW_BOTTOMFLOOR,COIL:COOLING:DX:SINGLESPEED,DX COOLING COIL_UNIT2_FRONTROW_BOTTOMFLOOR,Outlet,1
 Non-Parent Node Connection,COOLING COIL AIR INLET NODE_UNIT3_FRONTROW_BOTTOMFLOOR,COIL:COOLING:DX:SINGLESPEED,DX COOLING COIL_UNIT3_FRONTROW_BOTTOMFLOOR,Inlet,1
 Non-Parent Node Connection,HEATING COIL AIR INLET NODE_UNIT3_FRONTROW_BOTTOMFLOOR,COIL:COOLING:DX:SINGLESPEED,DX COOLING COIL_UNIT3_FRONTROW_BOTTOMFLOOR,Outlet,1
 Non-Parent Node Connection,COOLING COIL AIR INLET NODE_UNIT1_BACKROW_BOTTOMFLOOR,COIL:COOLING:DX:SINGLESPEED,DX COOLING COIL_UNIT1_BACKROW_BOTTOMFLOOR,Inlet,1
 Non-Parent Node Connection,HEATING COIL AIR INLET NODE_UNIT1_BACKROW_BOTTOMFLOOR,COIL:COOLING:DX:SINGLESPEED,DX COOLING COIL_UNIT1_BACKROW_BOTTOMFLOOR,Outlet,1
 Non-Parent Node Connection,COOLING COIL AIR INLET NODE_UNIT2_BACKROW_BOTTOMFLOOR,COIL:COOLING:DX:SINGLESPEED,DX COOLING COIL_UNIT2_BACKROW_BOTTOMFLOOR,Inlet,1
 Non-Parent Node Connection,HEATING COIL AIR INLET NODE_UNIT2_BACKROW_BOTTOMFLOOR,COIL:COOLING:DX:SINGLESPEED,DX COOLING COIL_UNIT2_BACKROW_BOTTOMFLOOR,Outlet,1
 Non-Parent Node Connection,COOLING COIL AIR INLET NODE_UNIT3_BACKROW_BOTTOMFLOOR,COIL:COOLING:DX:SINGLESPEED,DX COOLING COIL_UNIT3_BACKROW_BOTTOMFLOOR,Inlet,1
 Non-Parent Node Connection,HEATING COIL AIR INLET NODE_UNIT3_BACKROW_BOTTOMFLOOR,COIL:COOLING:DX:SINGLESPEED,DX COOLING COIL_UNIT3_BACKROW_BOTTOMFLOOR,Outlet,1
 Non-Parent Node Connection,COOLING COIL AIR INLET NODE_UNIT1_FRONTROW_MIDDLEFLOOR,COIL:COOLING:DX:SINGLESPEED,DX COOLING COIL_UNIT1_FRONTROW_MIDDLEFLOOR,Inlet,1
 Non-Parent Node Connection,HEATING COIL AIR INLET NODE_UNIT1_FRONTROW_MIDDLEFLOOR,COIL:COOLING:DX:SINGLESPEED,DX COOLING COIL_UNIT1_FRONTROW_MIDDLEFLOOR,Outlet,1
 Non-Parent Node Connection,COOLING COIL AIR INLET NODE_UNIT2_FRONTROW_MIDDLEFLOOR,COIL:COOLING:DX:SINGLESPEED,DX COOLING COIL_UNIT2_FRONTROW_MIDDLEFLOOR,Inlet,1
 Non-Parent Node Connection,HEATING COIL AIR INLET NODE_UNIT2_FRONTROW_MIDDLEFLOOR,COIL:COOLING:DX:SINGLESPEED,DX COOLING COIL_UNIT2_FRONTROW_MIDDLEFLOOR,Outlet,1
 Non-Parent Node Connection,COOLING COIL AIR INLET NODE_UNIT3_FRONTROW_MIDDLEFLOOR,COIL:COOLING:DX:SINGLESPEED,DX COOLING COIL_UNIT3_FRONTROW_MIDDLEFLOOR,Inlet,1
 Non-Parent Node Connection,HEATING COIL AIR INLET NODE_UNIT3_FRONTROW_MIDDLEFLOOR,COIL:COOLING:DX:SINGLESPEED,DX COOLING COIL_UNIT3_FRONTROW_MIDDLEFLOOR,Outlet,1
 Non-Parent Node Connection,COOLING COIL AIR INLET NODE_UNIT1_BACKROW_MIDDLEFLOOR,COIL:COOLING:DX:SINGLESPEED,DX COOLING COIL_UNIT1_BACKROW_MIDDLEFLOOR,Inlet,1
 Non-Parent Node Connection,HEATING COIL AIR INLET NODE_UNIT1_BACKROW_MIDDLEFLOOR,COIL:COOLING:DX:SINGLESPEED,DX COOLING COIL_UNIT1_BACKROW_MIDDLEFLOOR,Outlet,1
 Non-Parent Node Connection,COOLING COIL AIR INLET NODE_UNIT2_BACKROW_MIDDLEFLOOR,COIL:COOLING:DX:SINGLESPEED,DX COOLING COIL_UNIT2_BACKROW_MIDDLEFLOOR,Inlet,1
 Non-Parent Node Connection,HEATING COIL AIR INLET NODE_UNIT2_BACKROW_MIDDLEFLOOR,COIL:COOLING:DX:SINGLESPEED,DX COOLING COIL_UNIT2_BACKROW_MIDDLEFLOOR,Outlet,1
 Non-Parent Node Connection,COOLING COIL AIR INLET NODE_UNIT3_BACKROW_MIDDLEFLOOR,COIL:COOLING:DX:SINGLESPEED,DX COOLING COIL_UNIT3_BACKROW_MIDDLEFLOOR,Inlet,1
 Non-Parent Node Connection,HEATING COIL AIR INLET NODE_UNIT3_BACKROW_MIDDLEFLOOR,COIL:COOLING:DX:SINGLESPEED,DX COOLING COIL_UNIT3_BACKROW_MIDDLEFLOOR,Outlet,1
 Non-Parent Node Connection,COOLING COIL AIR INLET NODE_UNIT1_FRONTROW_TOPFLOOR,COIL:COOLING:DX:SINGLESPEED,DX COOLING COIL_UNIT1_FRONTROW_TOPFLOOR,Inlet,1
 Non-Parent Node Connection,HEATING COIL AIR INLET NODE_UNIT1_FRONTROW_TOPFLOOR,COIL:COOLING:DX:SINGLESPEED,DX COOLING COIL_UNIT1_FRONTROW_TOPFLOOR,Outlet,1
 Non-Parent Node Connection,COOLING COIL AIR INLET NODE_UNIT2_FRONTROW_TOPFLOOR,COIL:COOLING:DX:SINGLESPEED,DX COOLING COIL_UNIT2_FRONTROW_TOPFLOOR,Inlet,1
 Non-Parent Node Connection,HEATING COIL AIR INLET NODE_UNIT2_FRONTROW_TOPFLOOR,COIL:COOLING:DX:SINGLESPEED,DX COOLING COIL_UNIT2_FRONTROW_TOPFLOOR,Outlet,1
 Non-Parent Node Connection,COOLING COIL AIR INLET NODE_UNIT3_FRONTROW_TOPFLOOR,COIL:COOLING:DX:SINGLESPEED,DX COOLING COIL_UNIT3_FRONTROW_TOPFLOOR,Inlet,1
 Non-Parent Node Connection,HEATING COIL AIR INLET NODE_UNIT3_FRONTROW_TOPFLOOR,COIL:COOLING:DX:SINGLESPEED,DX COOLING COIL_UNIT3_FRONTROW_TOPFLOOR,Outlet,1
 Non-Parent Node Connection,COOLING COIL AIR INLET NODE_UNIT1_BACKROW_TOPFLOOR,COIL:COOLING:DX:SINGLESPEED,DX COOLING COIL_UNIT1_BACKROW_TOPFLOOR,Inlet,1
 Non-Parent Node Connection,HEATING COIL AIR INLET NODE_UNIT1_BACKROW_TOPFLOOR,COIL:COOLING:DX:SINGLESPEED,DX COOLING COIL_UNIT1_BACKROW_TOPFLOOR,Outlet,1
 Non-Parent Node Connection,COOLING COIL AIR INLET NODE_UNIT2_BACKROW_TOPFLOOR,COIL:COOLING:DX:SINGLESPEED,DX COOLING COIL_UNIT2_BACKROW_TOPFLOOR,Inlet,1
 Non-Parent Node Connection,HEATING COIL AIR INLET NODE_UNIT2_BACKROW_TOPFLOOR,COIL:COOLING:DX:SINGLESPEED,DX COOLING COIL_UNIT2_BACKROW_TOPFLOOR,Outlet,1
 Non-Parent Node Connection,COOLING COIL AIR INLET NODE_UNIT3_BACKROW_TOPFLOOR,COIL:COOLING:DX:SINGLESPEED,DX COOLING COIL_UNIT3_BACKROW_TOPFLOOR,Inlet,1
 Non-Parent Node Connection,HEATING COIL AIR INLET NODE_UNIT3_BACKROW_TOPFLOOR,COIL:COOLING:DX:SINGLESPEED,DX COOLING COIL_UNIT3_BACKROW_TOPFLOOR,Outlet,1
 Non-Parent Node Connection,MAINS INLET NODE_UNIT1_FRONTROW_BOTTOMFLOOR,PUMP:VARIABLESPEED,MAINS PRESSURE_UNIT1_FRONTROW_BOTTOMFLOOR,Inlet,1
 Non-Parent Node Connection,MAINS PRESSURE OUTLET NODE_UNIT1_FRONTROW_BOTTOMFLOOR,PUMP:VARIABLESPEED,MAINS PRESSURE_UNIT1_FRONTROW_BOTTOMFLOOR,Outlet,1
 Non-Parent Node Connection,MAINS INLET NODE_UNIT2_FRONTROW_BOTTOMFLOOR,PUMP:VARIABLESPEED,MAINS PRESSURE_UNIT2_FRONTROW_BOTTOMFLOOR,Inlet,1
 Non-Parent Node Connection,MAINS PRESSURE OUTLET NODE_UNIT2_FRONTROW_BOTTOMFLOOR,PUMP:VARIABLESPEED,MAINS PRESSURE_UNIT2_FRONTROW_BOTTOMFLOOR,Outlet,1
 Non-Parent Node Connection,MAINS INLET NODE_UNIT3_FRONTROW_BOTTOMFLOOR,PUMP:VARIABLESPEED,MAINS PRESSURE_UNIT3_FRONTROW_BOTTOMFLOOR,Inlet,1
 Non-Parent Node Connection,MAINS PRESSURE OUTLET NODE_UNIT3_FRONTROW_BOTTOMFLOOR,PUMP:VARIABLESPEED,MAINS PRESSURE_UNIT3_FRONTROW_BOTTOMFLOOR,Outlet,1
 Non-Parent Node Connection,MAINS INLET NODE_UNIT1_BACKROW_BOTTOMFLOOR,PUMP:VARIABLESPEED,MAINS PRESSURE_UNIT1_BACKROW_BOTTOMFLOOR,Inlet,1
 Non-Parent Node Connection,MAINS PRESSURE OUTLET NODE_UNIT1_BACKROW_BOTTOMFLOOR,PUMP:VARIABLESPEED,MAINS PRESSURE_UNIT1_BACKROW_BOTTOMFLOOR,Outlet,1
 Non-Parent Node Connection,MAINS INLET NODE_UNIT2_BACKROW_BOTTOMFLOOR,PUMP:VARIABLESPEED,MAINS PRESSURE_UNIT2_BACKROW_BOTTOMFLOOR,Inlet,1
 Non-Parent Node Connection,MAINS PRESSURE OUTLET NODE_UNIT2_BACKROW_BOTTOMFLOOR,PUMP:VARIABLESPEED,MAINS PRESSURE_UNIT2_BACKROW_BOTTOMFLOOR,Outlet,1
 Non-Parent Node Connection,MAINS INLET NODE_UNIT3_BACKROW_BOTTOMFLOOR,PUMP:VARIABLESPEED,MAINS PRESSURE_UNIT3_BACKROW_BOTTOMFLOOR,Inlet,1
 Non-Parent Node Connection,MAINS PRESSURE OUTLET NODE_UNIT3_BACKROW_BOTTOMFLOOR,PUMP:VARIABLESPEED,MAINS PRESSURE_UNIT3_BACKROW_BOTTOMFLOOR,Outlet,1
 Non-Parent Node Connection,MAINS INLET NODE_UNIT1_FRONTROW_MIDDLEFLOOR,PUMP:VARIABLESPEED,MAINS PRESSURE_UNIT1_FRONTROW_MIDDLEFLOOR,Inlet,1
 Non-Parent Node Connection,MAINS PRESSURE OUTLET NODE_UNIT1_FRONTROW_MIDDLEFLOOR,PUMP:VARIABLESPEED,MAINS PRESSURE_UNIT1_FRONTROW_MIDDLEFLOOR,Outlet,1
 Non-Parent Node Connection,MAINS INLET NODE_UNIT2_FRONTROW_MIDDLEFLOOR,PUMP:VARIABLESPEED,MAINS PRESSURE_UNIT2_FRONTROW_MIDDLEFLOOR,Inlet,1
 Non-Parent Node Connection,MAINS PRESSURE OUTLET NODE_UNIT2_FRONTROW_MIDDLEFLOOR,PUMP:VARIABLESPEED,MAINS PRESSURE_UNIT2_FRONTROW_MIDDLEFLOOR,Outlet,1
 Non-Parent Node Connection,MAINS INLET NODE_UNIT3_FRONTROW_MIDDLEFLOOR,PUMP:VARIABLESPEED,MAINS PRESSURE_UNIT3_FRONTROW_MIDDLEFLOOR,Inlet,1
 Non-Parent Node Connection,MAINS PRESSURE OUTLET NODE_UNIT3_FRONTROW_MIDDLEFLOOR,PUMP:VARIABLESPEED,MAINS PRESSURE_UNIT3_FRONTROW_MIDDLEFLOOR,Outlet,1
 Non-Parent Node Connection,MAINS INLET NODE_UNIT1_BACKROW_MIDDLEFLOOR,PUMP:VARIABLESPEED,MAINS PRESSURE_UNIT1_BACKROW_MIDDLEFLOOR,Inlet,1
 Non-Parent Node Connection,MAINS PRESSURE OUTLET NODE_UNIT1_BACKROW_MIDDLEFLOOR,PUMP:VARIABLESPEED,MAINS PRESSURE_UNIT1_BACKROW_MIDDLEFLOOR,Outlet,1
 Non-Parent Node Connection,MAINS INLET NODE_UNIT2_BACKROW_MIDDLEFLOOR,PUMP:VARIABLESPEED,MAINS PRESSURE_UNIT2_BACKROW_MIDDLEFLOOR,Inlet,1
 Non-Parent Node Connection,MAINS PRESSURE OUTLET NODE_UNIT2_BACKROW_MIDDLEFLOOR,PUMP:VARIABLESPEED,MAINS PRESSURE_UNIT2_BACKROW_MIDDLEFLOOR,Outlet,1
 Non-Parent Node Connection,MAINS INLET NODE_UNIT3_BACKROW_MIDDLEFLOOR,PUMP:VARIABLESPEED,MAINS PRESSURE_UNIT3_BACKROW_MIDDLEFLOOR,Inlet,1
 Non-Parent Node Connection,MAINS PRESSURE OUTLET NODE_UNIT3_BACKROW_MIDDLEFLOOR,PUMP:VARIABLESPEED,MAINS PRESSURE_UNIT3_BACKROW_MIDDLEFLOOR,Outlet,1
 Non-Parent Node Connection,MAINS INLET NODE_UNIT1_FRONTROW_TOPFLOOR,PUMP:VARIABLESPEED,MAINS PRESSURE_UNIT1_FRONTROW_TOPFLOOR,Inlet,1
 Non-Parent Node Connection,MAINS PRESSURE OUTLET NODE_UNIT1_FRONTROW_TOPFLOOR,PUMP:VARIABLESPEED,MAINS PRESSURE_UNIT1_FRONTROW_TOPFLOOR,Outlet,1
 Non-Parent Node Connection,MAINS INLET NODE_UNIT2_FRONTROW_TOPFLOOR,PUMP:VARIABLESPEED,MAINS PRESSURE_UNIT2_FRONTROW_TOPFLOOR,Inlet,1
 Non-Parent Node Connection,MAINS PRESSURE OUTLET NODE_UNIT2_FRONTROW_TOPFLOOR,PUMP:VARIABLESPEED,MAINS PRESSURE_UNIT2_FRONTROW_TOPFLOOR,Outlet,1
 Non-Parent Node Connection,MAINS INLET NODE_UNIT3_FRONTROW_TOPFLOOR,PUMP:VARIABLESPEED,MAINS PRESSURE_UNIT3_FRONTROW_TOPFLOOR,Inlet,1
 Non-Parent Node Connection,MAINS PRESSURE OUTLET NODE_UNIT3_FRONTROW_TOPFLOOR,PUMP:VARIABLESPEED,MAINS PRESSURE_UNIT3_FRONTROW_TOPFLOOR,Outlet,1
 Non-Parent Node Connection,MAINS INLET NODE_UNIT1_BACKROW_TOPFLOOR,PUMP:VARIABLESPEED,MAINS PRESSURE_UNIT1_BACKROW_TOPFLOOR,Inlet,1
 Non-Parent Node Connection,MAINS PRESSURE OUTLET NODE_UNIT1_BACKROW_TOPFLOOR,PUMP:VARIABLESPEED,MAINS PRESSURE_UNIT1_BACKROW_TOPFLOOR,Outlet,1
 Non-Parent Node Connection,MAINS INLET NODE_UNIT2_BACKROW_TOPFLOOR,PUMP:VARIABLESPEED,MAINS PRESSURE_UNIT2_BACKROW_TOPFLOOR,Inlet,1
 Non-Parent Node Connection,MAINS PRESSURE OUTLET NODE_UNIT2_BACKROW_TOPFLOOR,PUMP:VARIABLESPEED,MAINS PRESSURE_UNIT2_BACKROW_TOPFLOOR,Outlet,1
 Non-Parent Node Connection,MAINS INLET NODE_UNIT3_BACKROW_TOPFLOOR,PUMP:VARIABLESPEED,MAINS PRESSURE_UNIT3_BACKROW_TOPFLOOR,Inlet,1
 Non-Parent Node Connection,MAINS PRESSURE OUTLET NODE_UNIT3_BACKROW_TOPFLOOR,PUMP:VARIABLESPEED,MAINS PRESSURE_UNIT3_BACKROW_TOPFLOOR,Outlet,1
