Program Version,EnergyPlus, Version 9.6.0-f420c06a69, YMD=2022.04.09 20:45
