Program Version,EnergyPlus, Version 9.6.0-f420c06a69, YMD=2022.03.03 00:37
