Program Version,EnergyPlus, Version 9.6.0-f420c06a69, YMD=2022.02.03 23:43
! <Version>, Version ID
 Version, 9.6
! <Timesteps per Hour>, #TimeSteps, Minutes per TimeStep {minutes}
 Timesteps per Hour,  6, 10
! <System Convergence Limits>, Minimum System TimeStep {minutes}, Max HVAC Iterations, Minimum Plant Iterations, Maximum Plant Iterations
 System Convergence Limits, 1, 20, 2, 8
! <Simulation Control>, Do Zone Sizing, Do System Sizing, Do Plant Sizing, Do Design Days, Do Weather Simulation, Do HVAC Sizing Simulation
 Simulation Control, Yes, Yes, No, Yes, Yes, No
! <Performance Precision Tradeoffs>, Use Coil Direct Simulation, Zone Radiant Exchange Algorithm, Override Mode, Number of Timestep In Hour, Force Euler Method, Minimum Number of Warmup Days, Force Suppress All Begin Environment Resets, Minimum System Timestep, MaxZoneTempDiff, MaxAllowedDelTemp
 Performance Precision Tradeoffs, No, ScriptF, Normal, 6, No, 1, No, 1.0, 0.300, 2.0000E-003
! <Output Reporting Tolerances>, Tolerance for Time Heating Setpoint Not Met, Tolerance for Zone Cooling Setpoint Not Met Time
 Output Reporting Tolerances, 0.200, 0.200, 
! <Site:GroundTemperature:BuildingSurface>,Jan{C},Feb{C},Mar{C},Apr{C},May{C},Jun{C},Jul{C},Aug{C},Sep{C},Oct{C},Nov{C},Dec{C}
 Site:GroundTemperature:BuildingSurface,  18.00,  18.00,  18.00,  18.00,  18.00,  18.00,  18.00,  18.00,  18.00,  18.00,  18.00,  18.00
! <Site:GroundTemperature:FCfactorMethod>,Jan{C},Feb{C},Mar{C},Apr{C},May{C},Jun{C},Jul{C},Aug{C},Sep{C},Oct{C},Nov{C},Dec{C}
 Site:GroundTemperature:FCfactorMethod,  -0.60,   1.34,   5.12,   8.69,  15.46,  19.02,  20.00,  18.20,  14.02,   8.83,   3.71,   0.32
! <Site:GroundTemperature:Shallow>,Jan{C},Feb{C},Mar{C},Apr{C},May{C},Jun{C},Jul{C},Aug{C},Sep{C},Oct{C},Nov{C},Dec{C}
 Site:GroundTemperature:Shallow,  13.00,  13.00,  13.00,  13.00,  13.00,  13.00,  13.00,  13.00,  13.00,  13.00,  13.00,  13.00
! <Site:GroundTemperature:Deep>,Jan{C},Feb{C},Mar{C},Apr{C},May{C},Jun{C},Jul{C},Aug{C},Sep{C},Oct{C},Nov{C},Dec{C}
 Site:GroundTemperature:Deep,  16.00,  16.00,  16.00,  16.00,  16.00,  16.00,  16.00,  16.00,  16.00,  16.00,  16.00,  16.00
! <Site:GroundReflectance>,Jan{dimensionless},Feb{dimensionless},Mar{dimensionless},Apr{dimensionless},May{dimensionless},Jun{dimensionless},Jul{dimensionless},Aug{dimensionless},Sep{dimensionless},Oct{dimensionless},Nov{dimensionless},Dec{dimensionless}
 Site:GroundReflectance,  0.20,  0.20,  0.20,  0.20,  0.20,  0.20,  0.20,  0.20,  0.20,  0.20,  0.20,  0.20
! <Site:GroundReflectance:SnowModifier>, Normal, Daylighting {dimensionless}
 Site:GroundReflectance:SnowModifier,   1.000,   1.000
! <Site:GroundReflectance:Snow>,Jan{dimensionless},Feb{dimensionless},Mar{dimensionless},Apr{dimensionless},May{dimensionless},Jun{dimensionless},Jul{dimensionless},Aug{dimensionless},Sep{dimensionless},Oct{dimensionless},Nov{dimensionless},Dec{dimensionless}
 Site:GroundReflectance:Snow,  0.20,  0.20,  0.20,  0.20,  0.20,  0.20,  0.20,  0.20,  0.20,  0.20,  0.20,  0.20
! <Site:GroundReflectance:Snow:Daylighting>,Jan{dimensionless},Feb{dimensionless},Mar{dimensionless},Apr{dimensionless},May{dimensionless},Jun{dimensionless},Jul{dimensionless},Aug{dimensionless},Sep{dimensionless},Oct{dimensionless},Nov{dimensionless},Dec{dimensionless}
 Site:GroundReflectance:Snow:Daylighting,  0.20,  0.20,  0.20,  0.20,  0.20,  0.20,  0.20,  0.20,  0.20,  0.20,  0.20,  0.20
! <Environment:Weather Station>,Wind Sensor Height Above Ground {m},Wind Speed Profile Exponent {},Wind Speed Profile Boundary Layer Thickness {m},Air Temperature Sensor Height Above Ground {m},Wind Speed Modifier Coefficient-Internal,Temperature Modifier Coefficient-Internal
Environment:Weather Station,10.000,0.140,270.000,1.500,1.586,9.750E-003
! <Site:Location>, Location Name, Latitude {N+/S- Deg}, Longitude {E+/W- Deg},  Time Zone Number {GMT+/-}, Elevation {m},  Standard Pressure at Elevation {Pa}, Standard RhoAir at Elevation
Site:Location,Denver Centennial  Golden   Nr CO USA TMY3 WMO#=724666,39.74,-105.18,-7.00,1829.00,81198,0.9651
! <Site Water Mains Temperature Information>,Calculation Method{},Water Mains Temperature Schedule Name{},Annual Average Outdoor Air Temperature{C},Maximum Difference In Monthly Average Outdoor Air Temperatures{deltaC},Fixed Default Water Mains Temperature{C}
Site Water Mains Temperature Information,Correlation,NA,9.95,23.70,NA
! <Building Information>, Building Name,North Axis {deg},Terrain,  Loads Convergence Tolerance Value,Temperature Convergence Tolerance Value,  Solar Distribution,Maximum Number of Warmup Days,Minimum Number of Warmup Days
 Building Information,US+MF+CZ5B+hp+slab+IECC_2021,0.000,Suburbs,4.00000E-002,0.40000,FullExterior,25,6
! <Inside Convection Algorithm>, Algorithm {Simple | TARP | CeilingDiffuser | AdaptiveConvectionAlgorithm}
Inside Convection Algorithm,TARP
! <Outside Convection Algorithm>, Algorithm {SimpleCombined | TARP | MoWitt | DOE-2 | AdaptiveConvectionAlgorithm}
Outside Convection Algorithm,DOE-2
! <Sky Radiance Distribution>, Value {Anisotropic}
Sky Radiance Distribution,Anisotropic
! <Zone Air Solution Algorithm>, Value {ThirdOrderBackwardDifference | AnalyticalSolution | EulerMethod}
 Zone Air Solution Algorithm, ThirdOrderBackwardDifference
! <Zone Air Carbon Dioxide Balance Simulation>, Simulation {Yes/No}, Carbon Dioxide Concentration
 Zone Air Carbon Dioxide Balance Simulation, No,N/A
! <Zone Air Generic Contaminant Balance Simulation>, Simulation {Yes/No}, Generic Contaminant Concentration
 Zone Air Generic Contaminant Balance Simulation, No,N/A
! <Zone Air Mass Flow Balance Simulation>, Enforce Mass Balance, Adjust Zone Mixing and Return {AdjustMixingOnly | AdjustReturnOnly | AdjustMixingThenReturn | AdjustReturnThenMixing | None}, Adjust Zone Infiltration {AddInfiltration | AdjustInfiltration | None}, Infiltration Zones {MixingSourceZonesOnly | AllZones}
 Zone Air Mass Flow Balance Simulation, No,N/A,N/A,N/A
! <HVACSystemRootFindingAlgorithm>, Value {RegulaFalsi | Bisection | BisectionThenRegulaFalsi | RegulaFalsiThenBisection}
 HVACSystemRootFindingAlgorithm, RegulaFalsi
! <Environment:Site Atmospheric Variation>,Wind Speed Profile Exponent {},Wind Speed Profile Boundary Layer Thickness {m},Air Temperature Gradient Coefficient {K/m}
Environment:Site Atmospheric Variation,0.220,370.000,6.500000E-003
! <Material Details>,Material Name,ThermalResistance {m2-K/w},Roughness,Thickness {m},Conductivity {w/m-K},Density {kg/m3},Specific Heat {J/kg-K},Absorptance:Thermal,Absorptance:Solar,Absorptance:Visible
! <Material:Air>,Material Name,ThermalResistance {m2-K/w}
 Material Details,SHEATHING_CONSOL_LAYER,0.8807,Rough,3.1115E-002,3.533E-002,20.100,1465.415,0.9000,0.7000,0.7000
 Material Details,CEIL_CONSOL_LAYER,9.1788,Rough,0.5665,6.172E-002,41.929,776.251,0.9000,0.7000,0.7000
 Material Details,FLOOR_CONSOL_LAYER,1.9554E-005,Rough,2.5400E-004,12.990,55.074,916.931,0.9000,0.7000,0.7000
 Material Details,BSMTWALL_CONSOL_LAYER,2.3423E-005,Rough,2.5400E-004,10.844,120.801,1036.258,0.9000,0.7000,0.7000
 Material Details,CRAWLWALL_CONSOL_LAYER,2.3423E-005,Rough,2.5400E-004,10.844,120.801,1036.258,0.9000,0.7000,0.7000
 Material Details,WALL_CONSOL_LAYER,2.4438,Rough,0.1397,5.717E-002,120.801,1036.258,0.9000,0.7000,0.7000
 Material Details,VERY HIGH REFLECTIVITY SURFACE,2.1097E-006,Smooth,5.0000E-004,237.000,2702.000,903.000,0.9000,5.0000E-002,5.0000E-002
 Material Details,GYPSUMBOARD-5/16IN,5.0054E-002,Rough,7.9395E-003,0.159,640.000,1129.600,0.9000,0.4000,0.1000
 Material Details,COPPERPIPE,4.7506E-005,MediumRough,1.9050E-002,401.000,2243.000,837.000,0.9000,0.6500,0.6500
 Material Details,F08 METAL SURFACE,1.7668E-005,Smooth,8.0000E-004,45.280,7824.000,500.000,0.9000,0.7000,0.7000
 Material Details,CONCRETE_4IN,7.7356E-002,Rough,0.1015,1.312,2242.800,465.200,0.9000,0.7000,0.7000
 Material Details,ASPHALT_SHINGLE,7.7448E-002,MediumRough,6.3399E-003,8.186E-002,1121.292,1255.200,0.9000,0.7500,0.7000
 Material Details,WOOD_SHINGLE,0.1115,MediumSmooth,1.2700E-002,0.114,426.091,1631.760,0.9000,0.7000,0.7000
 Material Details,SLATE_SHINGLE,8.8061E-003,MediumSmooth,1.2700E-002,1.442,1601.845,1255.200,0.9000,0.7000,0.7000
 Material Details,CEMENT_STUCCO,2.6422E-002,MediumSmooth,1.9050E-002,0.721,1865.580,878.640,0.9000,0.7000,0.7000
 Material Details,SYN_STUCCO,3.5237E-002,MediumSmooth,3.0480E-003,8.650E-002,400.000,878.640,0.9000,0.7000,0.7000
 Material Details,DRYWALL_1/2IN,7.9331E-002,MediumSmooth,1.2700E-002,0.160,800.923,1087.840,0.9000,0.7000,0.7000
 Material Details,OSB_5/8IN,0.1365,MediumSmooth,1.5875E-002,0.116,544.627,1213.360,0.9000,0.7000,0.7000
 Material Details,OSB_7/16IN,9.5550E-002,MediumSmooth,1.1113E-002,0.116,544.627,1213.360,0.9000,0.7000,0.7000
 Material Details,BLOWN_R30,5.1614,MediumRough,0.2126,4.119E-002,9.611,836.800,0.9000,0.7000,0.7000
 Material Details,BLOWN_R30_TOP,2.8489,MediumRough,0.1173,4.119E-002,9.611,836.800,0.9000,0.7000,0.7000
 Material Details,PLYWOOD_3/4IN,0.1650,Rough,1.9050E-002,0.115,544.680,674.540,0.9000,0.7000,0.7000
 Material Details,BATT_R19,7.3089,MediumRough,2.5400E-002,3.475E-003,9.611,836.800,0.9000,0.7000,0.7000
 Material Details,LUMBER_2X4,0.7709,Rough,8.9002E-002,0.115,512.640,767.580,0.9000,0.7000,0.7000
 Material Details,CARPET_N_PAD,0.4224,MediumSmooth,2.5400E-002,6.013E-002,32.037,836.800,0.9000,0.7000,0.7000
 Material Details,BATT_R13,2.2936,MediumRough,8.8900E-002,3.876E-002,9.611,836.800,0.9000,0.7000,0.7000
 Material Details,OSB_1/2IN,0.1092,MediumSmooth,1.2700E-002,0.116,544.627,1213.360,0.9000,0.7000,0.7000
 Material Details,SOIL_12IN,0.1761,Rough,0.3048,1.731,1842.300,232.600,0.9000,0.7000,0.7000
 Material Details,DOOR_CONST,0.5870,Smooth,4.2270E-002,7.201E-002,512.640,767.580,0.9000,0.7000,0.7000
 Material Details,GYP_BOARD_1/2IN,8.0130E-002,Rough,1.2710E-002,0.159,640.000,1129.600,0.9000,0.4000,0.1000
 Material Details,STD WOOD 6INCH,1.2500,MediumSmooth,0.1500,0.120,540.000,1210.000,0.9000,0.7000,0.7000
 Material Details,PIPE INSULATION,0.3830,VeryRough,1.2703E-002,3.317E-002,91.000,836.000,0.9000,0.5000,0.5000
 Material Details,MANF_WALL_AIRGAP,0.1200,Smooth,0.0000,0.000,0.000,0.000,0.9000,0.7000,0.7000
 Material Details,BLDG_PAPER_FELT,1.0567E-002,Smooth,0.0000,0.000,0.000,0.000,0.9000,0.7000,0.7000
 Material Details,R_HIGH,177.0000,MediumRough,0.0000,0.000,0.000,0.000,0.9000,0.7000,0.7000
 Material:Air,AIR_4_IN_VERT,0.1585
 Material:Air,3/4IN_AIR_SPACE,8.5130E-002
 Material:Air,3/4IN_REFLECTIVE_AIR_SPACE,0.2466
 Material Details,CLEAR ACRYLIC PLASTIC,3.3333E-003,VerySmooth,3.0000E-003,0.900,0.000,0.000,0.9000,0.0000,0.0000
 Material Details,DIFFUSING ACRYLIC PLASTIC,2.4444E-003,VerySmooth,2.2000E-003,0.900,0.000,0.000,0.9000,0.0000,0.0000
 Material Details,INT_BLIND,0.0000,Rough,0.0000,0.000,0.000,0.000,0.0000,0.0000,0.0000
 Material Details,GLASS,0.4127,VerySmooth,4.1840E-002,0.101,0.000,0.000,0.8400,0.0000,0.0000
! <Surface Geometry>,Starting Corner,Vertex Input Direction,Coordinate System,Daylight Reference Point Coordinate System,Rectangular (Simple) Surface Coordinate System
 Surface Geometry,LowerLeftCorner,Counterclockwise,RelativeCoordinateSystem,RelativeCoordinateSystem,RelativeToZoneOrigin
! <Other Side Coefficients>,Name,Combined convective/radiative film coefficient {W/m2-K},User selected Constant Temperature {C},Coefficient modifying the constant temperature term,Coefficient modifying the external dry bulb temperature term,Coefficient modifying the ground temperature term,Coefficient modifying the wind speed term {s/m},Coefficient modifying the zone air temperature term,Constant Temperature Schedule Name,Sinusoidal Variation,Period of Sinusoidal Variation,Previous Other Side Temperature Coefficient,Minimum Other Side Temperature {C},Maximum Other Side Temperature {C}
Other Side Coefficients,SURFPROPOTHSDCOEFSLABAVERAGE,N/A,N/A,1.000,0.000,0.000,0.000,0.000,SCHEDULEOSCSLABAVERAGESURFACETEMP,NO,24.000,0.000,N/A,N/A
Other Side Coefficients,SURFPROPOTHSDCOEFSLABPERIMETER,N/A,N/A,1.000,0.000,0.000,0.000,0.000,SCHEDULEOSCSLABPERIMETERTEMP,NO,24.000,0.000,N/A,N/A
Other Side Coefficients,SURFPROPOTHSDCOEFSLABCORE,N/A,N/A,1.000,0.000,0.000,0.000,0.000,SCHEDULEOSCSLABCORETEMP,NO,24.000,0.000,N/A,N/A
! <Surface Heat Transfer Algorithm>, Value {CTF - ConductionTransferFunction | EMPD - MoisturePenetrationDepthConductionTransferFunction | CondFD - ConductionFiniteDifference | HAMT - CombinedHeatAndMoistureFiniteElement} - Description,Inside Surface Max Temperature Limit{C}, Surface Convection Coefficient Lower Limit {W/m2-K}, Surface Convection Coefficient Upper Limit {W/m2-K}
Surface Heat Transfer Algorithm, CTF - ConductionTransferFunction,200,0.10,1000.0
! <Shading Summary>, Number of Fixed Detached Shades, Number of Building Detached Shades, Number of Attached Shades
 Shading Summary,0,0,60
! <Zone Summary>, Number of Zones, Number of Zone Surfaces, Number of SubSurfaces
 Zone Summary,20,171,48
! <Zone Information>,Zone Name,North Axis {deg},Origin X-Coordinate {m},Origin Y-Coordinate {m},Origin Z-Coordinate {m},Centroid X-Coordinate {m},Centroid Y-Coordinate {m},Centroid Z-Coordinate {m},Type,Zone Multiplier,Zone List Multiplier,Minimum X {m},Maximum X {m},Minimum Y {m},Maximum Y {m},Minimum Z {m},Maximum Z {m},Ceiling Height {m},Volume {m3},Zone Inside Convection Algorithm {Simple-Detailed-CeilingDiffuser-TrombeWall},Zone Outside Convection Algorithm {Simple-Detailed-Tarp-MoWitt-DOE-2-BLAST}, Floor Area {m2},Exterior Gross Wall Area {m2},Exterior Net Wall Area {m2},Exterior Window Area {m2}, Number of Surfaces, Number of SubSurfaces, Number of Shading SubSurfaces,  Part of Total Building Area
 Zone Information, BREEZEWAY,0.0,0.00,0.00,0.00,18.27,9.92,4.04,1,1,1,0.00,36.54,9.16,10.68,0.15,7.92,5.18,865.04,TARP,DOE-2,167.04,0.00,0.00,0.00,4,0,0,Yes
 Zone Information, LIVING_UNIT1_FRONTROW_BOTTOMFLOOR,0.0,0.00,0.00,0.00,6.09,4.58,1.45,1,1,1,0.00,12.18,0.00,9.16,0.15,2.74,2.59,289.01,TARP,DOE-2,111.52,86.85,71.18,13.72,6,3,4,Yes
 Zone Information, LIVING_UNIT2_FRONTROW_BOTTOMFLOOR,0.0,0.00,0.00,0.00,18.27,4.58,1.45,1,1,1,12.18,24.36,0.00,9.16,0.15,2.74,2.59,289.01,TARP,DOE-2,111.52,63.12,55.68,5.49,6,2,2,Yes
 Zone Information, LIVING_UNIT3_FRONTROW_BOTTOMFLOOR,0.0,0.00,0.00,0.00,30.45,4.58,1.45,1,1,1,24.36,36.54,0.00,9.16,0.15,2.74,2.59,289.01,TARP,DOE-2,111.52,86.85,71.18,13.72,6,3,4,Yes
 Zone Information, LIVING_UNIT1_BACKROW_BOTTOMFLOOR,0.0,0.00,0.00,0.00,6.09,15.26,1.45,1,1,1,0.00,12.18,10.68,19.84,0.15,2.74,2.59,289.01,TARP,DOE-2,111.52,86.85,71.18,13.72,6,3,4,Yes
 Zone Information, LIVING_UNIT2_BACKROW_BOTTOMFLOOR,0.0,0.00,0.00,0.00,18.27,15.26,1.45,1,1,1,12.18,24.36,10.68,19.84,0.15,2.74,2.59,289.01,TARP,DOE-2,111.52,63.12,55.68,5.49,6,2,2,Yes
 Zone Information, LIVING_UNIT3_BACKROW_BOTTOMFLOOR,0.0,0.00,0.00,0.00,30.45,15.26,1.45,1,1,1,24.36,36.54,10.68,19.84,0.15,2.74,2.59,289.01,TARP,DOE-2,111.52,86.85,71.18,13.72,6,3,4,Yes
 Zone Information, LIVING_UNIT1_FRONTROW_MIDDLEFLOOR,0.0,0.00,0.00,0.00,6.09,4.58,4.04,1,1,1,0.00,12.18,0.00,9.16,2.74,5.33,2.59,289.01,TARP,DOE-2,111.52,86.85,71.18,13.72,6,3,4,Yes
 Zone Information, LIVING_UNIT2_FRONTROW_MIDDLEFLOOR,0.0,0.00,0.00,0.00,18.27,4.58,4.04,1,1,1,12.18,24.36,0.00,9.16,2.74,5.33,2.59,289.01,TARP,DOE-2,111.52,63.12,55.68,5.49,6,2,2,Yes
 Zone Information, LIVING_UNIT3_FRONTROW_MIDDLEFLOOR,0.0,0.00,0.00,0.00,30.45,4.58,4.04,1,1,1,24.36,36.54,0.00,9.16,2.74,5.33,2.59,289.01,TARP,DOE-2,111.52,86.85,71.18,13.72,6,3,4,Yes
 Zone Information, LIVING_UNIT1_BACKROW_MIDDLEFLOOR,0.0,0.00,0.00,0.00,6.09,15.26,4.04,1,1,1,0.00,12.18,10.68,19.84,2.74,5.33,2.59,289.01,TARP,DOE-2,111.52,86.85,71.18,13.72,6,3,4,Yes
 Zone Information, LIVING_UNIT2_BACKROW_MIDDLEFLOOR,0.0,0.00,0.00,0.00,18.27,15.26,4.04,1,1,1,12.18,24.36,10.68,19.84,2.74,5.33,2.59,289.01,TARP,DOE-2,111.52,63.12,55.68,5.49,6,2,2,Yes
 Zone Information, LIVING_UNIT3_BACKROW_MIDDLEFLOOR,0.0,0.00,0.00,0.00,30.45,15.26,4.04,1,1,1,24.36,36.54,10.68,19.84,2.74,5.33,2.59,289.01,TARP,DOE-2,111.52,86.85,71.18,13.72,6,3,4,Yes
 Zone Information, ATTIC,0.0,-41.12,15.73,0.00,18.27,9.92,9.01,1,1,1,0.00,36.54,0.00,19.84,7.92,12.05,2.06,1494.78,TARP,DOE-2,724.82,81.87,81.87,0.00,11,0,0,Yes
 Zone Information, LIVING_UNIT3_BACKROW_TOPFLOOR,0.0,0.00,0.00,0.00,30.45,15.26,6.63,1,1,1,24.36,36.54,10.68,19.84,5.33,7.92,2.59,289.01,TARP,DOE-2,111.52,86.85,71.18,13.72,6,3,4,Yes
 Zone Information, LIVING_UNIT3_FRONTROW_TOPFLOOR,0.0,0.00,0.00,0.00,30.45,4.58,6.63,1,1,1,24.36,36.54,0.00,9.16,5.33,7.92,2.59,289.01,TARP,DOE-2,111.52,86.85,71.18,13.72,6,3,4,Yes
 Zone Information, LIVING_UNIT1_FRONTROW_TOPFLOOR,0.0,0.00,0.00,0.00,6.09,4.58,6.63,1,1,1,0.00,12.18,0.00,9.16,5.33,7.92,2.59,289.01,TARP,DOE-2,111.52,86.85,71.18,13.72,6,3,4,Yes
 Zone Information, LIVING_UNIT2_BACKROW_TOPFLOOR,0.0,0.00,0.00,0.00,18.27,15.26,6.63,1,1,1,12.18,24.36,10.68,19.84,5.33,7.92,2.59,289.01,TARP,DOE-2,111.52,63.12,55.68,5.49,6,2,2,Yes
 Zone Information, LIVING_UNIT2_FRONTROW_TOPFLOOR,0.0,0.00,0.00,0.00,18.27,4.58,6.63,1,1,1,12.18,24.36,0.00,9.16,5.33,7.92,2.59,289.01,TARP,DOE-2,111.52,63.12,55.68,5.49,6,2,2,Yes
 Zone Information, LIVING_UNIT1_BACKROW_TOPFLOOR,0.0,0.00,0.00,0.00,6.09,15.26,6.63,1,1,1,0.00,12.18,10.68,19.84,5.33,7.92,2.59,289.01,TARP,DOE-2,111.52,86.85,71.18,13.72,6,3,4,Yes
! <Zone Internal Gains Nominal>,Zone Name, Floor Area {m2},# Occupants,Area per Occupant {m2/person},Occupant per Area {person/m2},Interior Lighting {W/m2},Electric Load {W/m2},Gas Load {W/m2},Other Load {W/m2},Hot Water Eq {W/m2},Steam Equipment {W/m2},Sum Loads per Area {W/m2},Outdoor Controlled Baseboard Heat
 Zone Internal Gains Nominal, BREEZEWAY,167.04,0.0,N/A,0.000,0.000,0.000,0.000,0.000,0.000,0.000,0.000,No
 Zone Internal Gains Nominal, LIVING_UNIT1_FRONTROW_BOTTOMFLOOR,111.52,2.0,55.762,1.793E-002,1.840,9.179,0.000,0.000,0.000,0.000,11.018,No
 Zone Internal Gains Nominal, LIVING_UNIT2_FRONTROW_BOTTOMFLOOR,111.52,2.0,55.762,1.793E-002,1.840,9.179,0.000,0.000,0.000,0.000,11.018,No
 Zone Internal Gains Nominal, LIVING_UNIT3_FRONTROW_BOTTOMFLOOR,111.52,2.0,55.762,1.793E-002,1.840,9.179,0.000,0.000,0.000,0.000,11.018,No
 Zone Internal Gains Nominal, LIVING_UNIT1_BACKROW_BOTTOMFLOOR,111.52,2.0,55.762,1.793E-002,1.840,9.179,0.000,0.000,0.000,0.000,11.018,No
 Zone Internal Gains Nominal, LIVING_UNIT2_BACKROW_BOTTOMFLOOR,111.52,2.0,55.762,1.793E-002,1.840,9.179,0.000,0.000,0.000,0.000,11.018,No
 Zone Internal Gains Nominal, LIVING_UNIT3_BACKROW_BOTTOMFLOOR,111.52,2.0,55.762,1.793E-002,1.840,9.179,0.000,0.000,0.000,0.000,11.018,No
 Zone Internal Gains Nominal, LIVING_UNIT1_FRONTROW_MIDDLEFLOOR,111.52,2.0,55.762,1.793E-002,1.840,9.179,0.000,0.000,0.000,0.000,11.018,No
 Zone Internal Gains Nominal, LIVING_UNIT2_FRONTROW_MIDDLEFLOOR,111.52,2.0,55.762,1.793E-002,1.840,9.179,0.000,0.000,0.000,0.000,11.018,No
 Zone Internal Gains Nominal, LIVING_UNIT3_FRONTROW_MIDDLEFLOOR,111.52,2.0,55.762,1.793E-002,1.840,9.179,0.000,0.000,0.000,0.000,11.018,No
 Zone Internal Gains Nominal, LIVING_UNIT1_BACKROW_MIDDLEFLOOR,111.52,2.0,55.762,1.793E-002,1.840,9.179,0.000,0.000,0.000,0.000,11.018,No
 Zone Internal Gains Nominal, LIVING_UNIT2_BACKROW_MIDDLEFLOOR,111.52,2.0,55.762,1.793E-002,1.840,9.179,0.000,0.000,0.000,0.000,11.018,No
 Zone Internal Gains Nominal, LIVING_UNIT3_BACKROW_MIDDLEFLOOR,111.52,2.0,55.762,1.793E-002,1.840,9.179,0.000,0.000,0.000,0.000,11.018,No
 Zone Internal Gains Nominal, ATTIC,724.82,0.0,N/A,0.000,0.000,0.000,0.000,0.000,0.000,0.000,0.000,No
 Zone Internal Gains Nominal, LIVING_UNIT3_BACKROW_TOPFLOOR,111.52,2.0,55.762,1.793E-002,1.840,9.179,0.000,0.000,0.000,0.000,11.018,No
 Zone Internal Gains Nominal, LIVING_UNIT3_FRONTROW_TOPFLOOR,111.52,2.0,55.762,1.793E-002,1.840,9.179,0.000,0.000,0.000,0.000,11.018,No
 Zone Internal Gains Nominal, LIVING_UNIT1_FRONTROW_TOPFLOOR,111.52,2.0,55.762,1.793E-002,1.840,9.179,0.000,0.000,0.000,0.000,11.018,No
 Zone Internal Gains Nominal, LIVING_UNIT2_BACKROW_TOPFLOOR,111.52,2.0,55.762,1.793E-002,1.840,9.179,0.000,0.000,0.000,0.000,11.018,No
 Zone Internal Gains Nominal, LIVING_UNIT2_FRONTROW_TOPFLOOR,111.52,2.0,55.762,1.793E-002,1.840,9.179,0.000,0.000,0.000,0.000,11.018,No
 Zone Internal Gains Nominal, LIVING_UNIT1_BACKROW_TOPFLOOR,111.52,2.0,55.762,1.793E-002,1.840,9.179,0.000,0.000,0.000,0.000,11.018,No
! <People Internal Gains Nominal>,Name,Schedule Name,Zone Name,Zone Floor Area {m2},# Zone Occupants,Number of People {},People/Floor Area {person/m2},Floor Area per person {m2/person},Fraction Radiant,Fraction Convected,Sensible Fraction Calculation,Activity level,ASHRAE 55 Warnings,Carbon Dioxide Generation Rate,Nominal Minimum Number of People,Nominal Maximum Number of People
 People Internal Gains Nominal, PEOPLE_UNIT1_FRONTROW_BOTTOMFLOOR,OCCUPANCY,LIVING_UNIT1_FRONTROW_BOTTOMFLOOR,111.52,2.0,2.0,1.793E-002,55.762,0.000,1.000,AutoCalculate,ACTIVITY_SCH,No,3.8200E-008,0,2
 People Internal Gains Nominal, PEOPLE_UNIT2_FRONTROW_BOTTOMFLOOR,OCCUPANCY,LIVING_UNIT2_FRONTROW_BOTTOMFLOOR,111.52,2.0,2.0,1.793E-002,55.762,0.000,1.000,AutoCalculate,ACTIVITY_SCH,No,3.8200E-008,0,2
 People Internal Gains Nominal, PEOPLE_UNIT3_FRONTROW_BOTTOMFLOOR,OCCUPANCY,LIVING_UNIT3_FRONTROW_BOTTOMFLOOR,111.52,2.0,2.0,1.793E-002,55.762,0.000,1.000,AutoCalculate,ACTIVITY_SCH,No,3.8200E-008,0,2
 People Internal Gains Nominal, PEOPLE_UNIT1_BACKROW_BOTTOMFLOOR,OCCUPANCY,LIVING_UNIT1_BACKROW_BOTTOMFLOOR,111.52,2.0,2.0,1.793E-002,55.762,0.000,1.000,AutoCalculate,ACTIVITY_SCH,No,3.8200E-008,0,2
 People Internal Gains Nominal, PEOPLE_UNIT2_BACKROW_BOTTOMFLOOR,OCCUPANCY,LIVING_UNIT2_BACKROW_BOTTOMFLOOR,111.52,2.0,2.0,1.793E-002,55.762,0.000,1.000,AutoCalculate,ACTIVITY_SCH,No,3.8200E-008,0,2
 People Internal Gains Nominal, PEOPLE_UNIT3_BACKROW_BOTTOMFLOOR,OCCUPANCY,LIVING_UNIT3_BACKROW_BOTTOMFLOOR,111.52,2.0,2.0,1.793E-002,55.762,0.000,1.000,AutoCalculate,ACTIVITY_SCH,No,3.8200E-008,0,2
 People Internal Gains Nominal, PEOPLE_UNIT1_FRONTROW_MIDDLEFLOOR,OCCUPANCY,LIVING_UNIT1_FRONTROW_MIDDLEFLOOR,111.52,2.0,2.0,1.793E-002,55.762,0.000,1.000,AutoCalculate,ACTIVITY_SCH,No,3.8200E-008,0,2
 People Internal Gains Nominal, PEOPLE_UNIT2_FRONTROW_MIDDLEFLOOR,OCCUPANCY,LIVING_UNIT2_FRONTROW_MIDDLEFLOOR,111.52,2.0,2.0,1.793E-002,55.762,0.000,1.000,AutoCalculate,ACTIVITY_SCH,No,3.8200E-008,0,2
 People Internal Gains Nominal, PEOPLE_UNIT3_FRONTROW_MIDDLEFLOOR,OCCUPANCY,LIVING_UNIT3_FRONTROW_MIDDLEFLOOR,111.52,2.0,2.0,1.793E-002,55.762,0.000,1.000,AutoCalculate,ACTIVITY_SCH,No,3.8200E-008,0,2
 People Internal Gains Nominal, PEOPLE_UNIT1_BACKROW_MIDDLEFLOOR,OCCUPANCY,LIVING_UNIT1_BACKROW_MIDDLEFLOOR,111.52,2.0,2.0,1.793E-002,55.762,0.000,1.000,AutoCalculate,ACTIVITY_SCH,No,3.8200E-008,0,2
 People Internal Gains Nominal, PEOPLE_UNIT2_BACKROW_MIDDLEFLOOR,OCCUPANCY,LIVING_UNIT2_BACKROW_MIDDLEFLOOR,111.52,2.0,2.0,1.793E-002,55.762,0.000,1.000,AutoCalculate,ACTIVITY_SCH,No,3.8200E-008,0,2
 People Internal Gains Nominal, PEOPLE_UNIT3_BACKROW_MIDDLEFLOOR,OCCUPANCY,LIVING_UNIT3_BACKROW_MIDDLEFLOOR,111.52,2.0,2.0,1.793E-002,55.762,0.000,1.000,AutoCalculate,ACTIVITY_SCH,No,3.8200E-008,0,2
 People Internal Gains Nominal, PEOPLE_UNIT1_FRONTROW_TOPFLOOR,OCCUPANCY,LIVING_UNIT1_FRONTROW_TOPFLOOR,111.52,2.0,2.0,1.793E-002,55.762,0.000,1.000,AutoCalculate,ACTIVITY_SCH,No,3.8200E-008,0,2
 People Internal Gains Nominal, PEOPLE_UNIT2_FRONTROW_TOPFLOOR,OCCUPANCY,LIVING_UNIT2_FRONTROW_TOPFLOOR,111.52,2.0,2.0,1.793E-002,55.762,0.000,1.000,AutoCalculate,ACTIVITY_SCH,No,3.8200E-008,0,2
 People Internal Gains Nominal, PEOPLE_UNIT3_FRONTROW_TOPFLOOR,OCCUPANCY,LIVING_UNIT3_FRONTROW_TOPFLOOR,111.52,2.0,2.0,1.793E-002,55.762,0.000,1.000,AutoCalculate,ACTIVITY_SCH,No,3.8200E-008,0,2
 People Internal Gains Nominal, PEOPLE_UNIT1_BACKROW_TOPFLOOR,OCCUPANCY,LIVING_UNIT1_BACKROW_TOPFLOOR,111.52,2.0,2.0,1.793E-002,55.762,0.000,1.000,AutoCalculate,ACTIVITY_SCH,No,3.8200E-008,0,2
 People Internal Gains Nominal, PEOPLE_UNIT2_BACKROW_TOPFLOOR,OCCUPANCY,LIVING_UNIT2_BACKROW_TOPFLOOR,111.52,2.0,2.0,1.793E-002,55.762,0.000,1.000,AutoCalculate,ACTIVITY_SCH,No,3.8200E-008,0,2
 People Internal Gains Nominal, PEOPLE_UNIT3_BACKROW_TOPFLOOR,OCCUPANCY,LIVING_UNIT3_BACKROW_TOPFLOOR,111.52,2.0,2.0,1.793E-002,55.762,0.000,1.000,AutoCalculate,ACTIVITY_SCH,No,3.8200E-008,0,2
! <Lights Internal Gains Nominal>,Name,Schedule Name,Zone Name,Zone Floor Area {m2},# Zone Occupants,Lighting Level {W},Lights/Floor Area {W/m2},Lights per person {W/person},Fraction Return Air,Fraction Radiant,Fraction Short Wave,Fraction Convected,Fraction Replaceable,End-Use Category,Nominal Minimum Lighting Level {W},Nominal Maximum Lighting Level {W}
 Lights Internal Gains Nominal, LIVING HARDWIRED LIGHTING1_FRONTROW_BOTTOMFLOOR,INTERIORLIGHTINGHE,LIVING_UNIT1_FRONTROW_BOTTOMFLOOR,111.52,2.0,141.024,1.265,70.512,0.000,0.600,0.200,0.200,0.000,General,9.695,141.024
 Lights Internal Gains Nominal, LIVING PLUG-IN LIGHTING1_FRONTROW_BOTTOMFLOOR,INTERIORLIGHTINGHE,LIVING_UNIT1_FRONTROW_BOTTOMFLOOR,111.52,2.0,64.130,0.575,32.065,0.000,0.600,0.200,0.200,0.000,General,4.409,64.130
 Lights Internal Gains Nominal, LIVING HARDWIRED LIGHTING2_FRONTROW_BOTTOMFLOOR,INTERIORLIGHTINGHE,LIVING_UNIT2_FRONTROW_BOTTOMFLOOR,111.52,2.0,141.024,1.265,70.512,0.000,0.600,0.200,0.200,0.000,General,9.695,141.024
 Lights Internal Gains Nominal, LIVING PLUG-IN LIGHTING2_FRONTROW_BOTTOMFLOOR,INTERIORLIGHTINGHE,LIVING_UNIT2_FRONTROW_BOTTOMFLOOR,111.52,2.0,64.130,0.575,32.065,0.000,0.600,0.200,0.200,0.000,General,4.409,64.130
 Lights Internal Gains Nominal, LIVING HARDWIRED LIGHTING3_FRONTROW_BOTTOMFLOOR,INTERIORLIGHTINGHE,LIVING_UNIT3_FRONTROW_BOTTOMFLOOR,111.52,2.0,141.024,1.265,70.512,0.000,0.600,0.200,0.200,0.000,General,9.695,141.024
 Lights Internal Gains Nominal, LIVING PLUG-IN LIGHTING3_FRONTROW_BOTTOMFLOOR,INTERIORLIGHTINGHE,LIVING_UNIT3_FRONTROW_BOTTOMFLOOR,111.52,2.0,64.130,0.575,32.065,0.000,0.600,0.200,0.200,0.000,General,4.409,64.130
 Lights Internal Gains Nominal, LIVING HARDWIRED LIGHTING1_BACKROW_BOTTOMFLOOR,INTERIORLIGHTINGHE,LIVING_UNIT1_BACKROW_BOTTOMFLOOR,111.52,2.0,141.024,1.265,70.512,0.000,0.600,0.200,0.200,0.000,General,9.695,141.024
 Lights Internal Gains Nominal, LIVING PLUG-IN LIGHTING1_BACKROW_BOTTOMFLOOR,INTERIORLIGHTINGHE,LIVING_UNIT1_BACKROW_BOTTOMFLOOR,111.52,2.0,64.130,0.575,32.065,0.000,0.600,0.200,0.200,0.000,General,4.409,64.130
 Lights Internal Gains Nominal, LIVING HARDWIRED LIGHTING2_BACKROW_BOTTOMFLOOR,INTERIORLIGHTINGHE,LIVING_UNIT2_BACKROW_BOTTOMFLOOR,111.52,2.0,141.024,1.265,70.512,0.000,0.600,0.200,0.200,0.000,General,9.695,141.024
 Lights Internal Gains Nominal, LIVING PLUG-IN LIGHTING2_BACKROW_BOTTOMFLOOR,INTERIORLIGHTINGHE,LIVING_UNIT2_BACKROW_BOTTOMFLOOR,111.52,2.0,64.130,0.575,32.065,0.000,0.600,0.200,0.200,0.000,General,4.409,64.130
 Lights Internal Gains Nominal, LIVING HARDWIRED LIGHTING3_BACKROW_BOTTOMFLOOR,INTERIORLIGHTINGHE,LIVING_UNIT3_BACKROW_BOTTOMFLOOR,111.52,2.0,141.024,1.265,70.512,0.000,0.600,0.200,0.200,0.000,General,9.695,141.024
 Lights Internal Gains Nominal, LIVING PLUG-IN LIGHTING3_BACKROW_BOTTOMFLOOR,INTERIORLIGHTINGHE,LIVING_UNIT3_BACKROW_BOTTOMFLOOR,111.52,2.0,64.130,0.575,32.065,0.000,0.600,0.200,0.200,0.000,General,4.409,64.130
 Lights Internal Gains Nominal, LIVING HARDWIRED LIGHTING1_FRONTROW_MIDDLEFLOOR,INTERIORLIGHTINGHE,LIVING_UNIT1_FRONTROW_MIDDLEFLOOR,111.52,2.0,141.024,1.265,70.512,0.000,0.600,0.200,0.200,0.000,General,9.695,141.024
 Lights Internal Gains Nominal, LIVING PLUG-IN LIGHTING1_FRONTROW_MIDDLEFLOOR,INTERIORLIGHTINGHE,LIVING_UNIT1_FRONTROW_MIDDLEFLOOR,111.52,2.0,64.130,0.575,32.065,0.000,0.600,0.200,0.200,0.000,General,4.409,64.130
 Lights Internal Gains Nominal, LIVING HARDWIRED LIGHTING2_FRONTROW_MIDDLEFLOOR,INTERIORLIGHTINGHE,LIVING_UNIT2_FRONTROW_MIDDLEFLOOR,111.52,2.0,141.024,1.265,70.512,0.000,0.600,0.200,0.200,0.000,General,9.695,141.024
 Lights Internal Gains Nominal, LIVING PLUG-IN LIGHTING2_FRONTROW_MIDDLEFLOOR,INTERIORLIGHTINGHE,LIVING_UNIT2_FRONTROW_MIDDLEFLOOR,111.52,2.0,64.130,0.575,32.065,0.000,0.600,0.200,0.200,0.000,General,4.409,64.130
 Lights Internal Gains Nominal, LIVING HARDWIRED LIGHTING3_FRONTROW_MIDDLEFLOOR,INTERIORLIGHTINGHE,LIVING_UNIT3_FRONTROW_MIDDLEFLOOR,111.52,2.0,141.024,1.265,70.512,0.000,0.600,0.200,0.200,0.000,General,9.695,141.024
 Lights Internal Gains Nominal, LIVING PLUG-IN LIGHTING3_FRONTROW_MIDDLEFLOOR,INTERIORLIGHTINGHE,LIVING_UNIT3_FRONTROW_MIDDLEFLOOR,111.52,2.0,64.130,0.575,32.065,0.000,0.600,0.200,0.200,0.000,General,4.409,64.130
 Lights Internal Gains Nominal, LIVING HARDWIRED LIGHTING1_BACKROW_MIDDLEFLOOR,INTERIORLIGHTINGHE,LIVING_UNIT1_BACKROW_MIDDLEFLOOR,111.52,2.0,141.024,1.265,70.512,0.000,0.600,0.200,0.200,0.000,General,9.695,141.024
 Lights Internal Gains Nominal, LIVING PLUG-IN LIGHTING1_BACKROW_MIDDLEFLOOR,INTERIORLIGHTINGHE,LIVING_UNIT1_BACKROW_MIDDLEFLOOR,111.52,2.0,64.130,0.575,32.065,0.000,0.600,0.200,0.200,0.000,General,4.409,64.130
 Lights Internal Gains Nominal, LIVING HARDWIRED LIGHTING2_BACKROW_MIDDLEFLOOR,INTERIORLIGHTINGHE,LIVING_UNIT2_BACKROW_MIDDLEFLOOR,111.52,2.0,141.024,1.265,70.512,0.000,0.600,0.200,0.200,0.000,General,9.695,141.024
 Lights Internal Gains Nominal, LIVING PLUG-IN LIGHTING2_BACKROW_MIDDLEFLOOR,INTERIORLIGHTINGHE,LIVING_UNIT2_BACKROW_MIDDLEFLOOR,111.52,2.0,64.130,0.575,32.065,0.000,0.600,0.200,0.200,0.000,General,4.409,64.130
 Lights Internal Gains Nominal, LIVING HARDWIRED LIGHTING3_BACKROW_MIDDLEFLOOR,INTERIORLIGHTINGHE,LIVING_UNIT3_BACKROW_MIDDLEFLOOR,111.52,2.0,141.024,1.265,70.512,0.000,0.600,0.200,0.200,0.000,General,9.695,141.024
 Lights Internal Gains Nominal, LIVING PLUG-IN LIGHTING3_BACKROW_MIDDLEFLOOR,INTERIORLIGHTINGHE,LIVING_UNIT3_BACKROW_MIDDLEFLOOR,111.52,2.0,64.130,0.575,32.065,0.000,0.600,0.200,0.200,0.000,General,4.409,64.130
 Lights Internal Gains Nominal, LIVING HARDWIRED LIGHTING1_FRONTROW_TOPFLOOR,INTERIORLIGHTINGHE,LIVING_UNIT1_FRONTROW_TOPFLOOR,111.52,2.0,141.024,1.265,70.512,0.000,0.600,0.200,0.200,0.000,General,9.695,141.024
 Lights Internal Gains Nominal, LIVING PLUG-IN LIGHTING1_FRONTROW_TOPFLOOR,INTERIORLIGHTINGHE,LIVING_UNIT1_FRONTROW_TOPFLOOR,111.52,2.0,64.130,0.575,32.065,0.000,0.600,0.200,0.200,0.000,General,4.409,64.130
 Lights Internal Gains Nominal, LIVING HARDWIRED LIGHTING2_FRONTROW_TOPFLOOR,INTERIORLIGHTINGHE,LIVING_UNIT2_FRONTROW_TOPFLOOR,111.52,2.0,141.024,1.265,70.512,0.000,0.600,0.200,0.200,0.000,General,9.695,141.024
 Lights Internal Gains Nominal, LIVING PLUG-IN LIGHTING2_FRONTROW_TOPFLOOR,INTERIORLIGHTINGHE,LIVING_UNIT2_FRONTROW_TOPFLOOR,111.52,2.0,64.130,0.575,32.065,0.000,0.600,0.200,0.200,0.000,General,4.409,64.130
 Lights Internal Gains Nominal, LIVING HARDWIRED LIGHTING3_FRONTROW_TOPFLOOR,INTERIORLIGHTINGHE,LIVING_UNIT3_FRONTROW_TOPFLOOR,111.52,2.0,141.024,1.265,70.512,0.000,0.600,0.200,0.200,0.000,General,9.695,141.024
 Lights Internal Gains Nominal, LIVING PLUG-IN LIGHTING3_FRONTROW_TOPFLOOR,INTERIORLIGHTINGHE,LIVING_UNIT3_FRONTROW_TOPFLOOR,111.52,2.0,64.130,0.575,32.065,0.000,0.600,0.200,0.200,0.000,General,4.409,64.130
 Lights Internal Gains Nominal, LIVING HARDWIRED LIGHTING1_BACKROW_TOPFLOOR,INTERIORLIGHTINGHE,LIVING_UNIT1_BACKROW_TOPFLOOR,111.52,2.0,141.024,1.265,70.512,0.000,0.600,0.200,0.200,0.000,General,9.695,141.024
 Lights Internal Gains Nominal, LIVING PLUG-IN LIGHTING1_BACKROW_TOPFLOOR,INTERIORLIGHTINGHE,LIVING_UNIT1_BACKROW_TOPFLOOR,111.52,2.0,64.130,0.575,32.065,0.000,0.600,0.200,0.200,0.000,General,4.409,64.130
 Lights Internal Gains Nominal, LIVING HARDWIRED LIGHTING2_BACKROW_TOPFLOOR,INTERIORLIGHTINGHE,LIVING_UNIT2_BACKROW_TOPFLOOR,111.52,2.0,141.024,1.265,70.512,0.000,0.600,0.200,0.200,0.000,General,9.695,141.024
 Lights Internal Gains Nominal, LIVING PLUG-IN LIGHTING2_BACKROW_TOPFLOOR,INTERIORLIGHTINGHE,LIVING_UNIT2_BACKROW_TOPFLOOR,111.52,2.0,64.130,0.575,32.065,0.000,0.600,0.200,0.200,0.000,General,4.409,64.130
 Lights Internal Gains Nominal, LIVING HARDWIRED LIGHTING3_BACKROW_TOPFLOOR,INTERIORLIGHTINGHE,LIVING_UNIT3_BACKROW_TOPFLOOR,111.52,2.0,141.024,1.265,70.512,0.000,0.600,0.200,0.200,0.000,General,9.695,141.024
 Lights Internal Gains Nominal, LIVING PLUG-IN LIGHTING3_BACKROW_TOPFLOOR,INTERIORLIGHTINGHE,LIVING_UNIT3_BACKROW_TOPFLOOR,111.52,2.0,64.130,0.575,32.065,0.000,0.600,0.200,0.200,0.000,General,4.409,64.130
! <ElectricEquipment Internal Gains Nominal>,Name,Schedule Name,Zone Name,Zone Floor Area {m2},# Zone Occupants,Equipment Level {W},Equipment/Floor Area {W/m2},Equipment per person {W/person},Fraction Latent,Fraction Radiant,Fraction Lost,Fraction Convected,End-Use SubCategory,Nominal Minimum Equipment Level {W},Nominal Maximum Equipment Level {W}
 ElectricEquipment Internal Gains Nominal, DISHWASHER1_FRONTROW_BOTTOMFLOOR,DISHWASHER,LIVING_UNIT1_FRONTROW_BOTTOMFLOOR,111.52,2.0,54.754,0.491,27.377,0.150,0.600,0.250,0.000,dishwasher,0.000,48.896
 ElectricEquipment Internal Gains Nominal, REFRIGERATOR1_FRONTROW_BOTTOMFLOOR,REFRIGERATOR,LIVING_UNIT1_FRONTROW_BOTTOMFLOOR,111.52,2.0,91.058,0.816,45.529,0.000,1.000,0.000,0.000,refrigerator,66.598,91.058
 ElectricEquipment Internal Gains Nominal, CLOTHESWASHER1_FRONTROW_BOTTOMFLOOR,CLOTHESWASHER,LIVING_UNIT1_FRONTROW_BOTTOMFLOOR,111.52,2.0,23.732,0.213,11.866,0.000,0.800,0.200,0.000,clotheswasher,0.000,21.193
 ElectricEquipment Internal Gains Nominal, ELECTRIC_DRYER1_FRONTROW_BOTTOMFLOOR,CLOTHESDRYER,LIVING_UNIT1_FRONTROW_BOTTOMFLOOR,111.52,2.0,177.596,1.592,88.798,5.000E-002,0.150,0.800,0.000,electric_dryer,0.000,177.596
 ElectricEquipment Internal Gains Nominal, ELECTRIC_RANGE1_FRONTROW_BOTTOMFLOOR,COOKINGRANGE,LIVING_UNIT1_FRONTROW_BOTTOMFLOOR,111.52,2.0,206.727,1.854,103.363,0.300,0.400,0.300,0.000,electric_range,4.868,206.727
 ElectricEquipment Internal Gains Nominal, TELEVISION1_FRONTROW_BOTTOMFLOOR,INTERIORLIGHTING,LIVING_UNIT1_FRONTROW_BOTTOMFLOOR,111.52,2.0,0.000,0.000,0.000,0.000,1.000,0.000,0.000,television,0.000,0.000
 ElectricEquipment Internal Gains Nominal, ELECTRIC_MELS1_FRONTROW_BOTTOMFLOOR,MISCPLUGLOAD,LIVING_UNIT1_FRONTROW_BOTTOMFLOOR,111.52,2.0,440.553,3.950,220.277,6.000E-002,0.690,0.250,0.000,electric_mels,227.776,440.553
 ElectricEquipment Internal Gains Nominal, IECC_ADJ1_FRONTROW_BOTTOMFLOOR,MISCPLUGLOAD,LIVING_UNIT1_FRONTROW_BOTTOMFLOOR,111.52,2.0,29.231,0.262,14.616,6.244E-002,0.412,0.251,0.275,IECC_adj,15.113,29.231
 ElectricEquipment Internal Gains Nominal, DISHWASHER2_FRONTROW_BOTTOMFLOOR,DISHWASHER,LIVING_UNIT2_FRONTROW_BOTTOMFLOOR,111.52,2.0,54.754,0.491,27.377,0.150,0.600,0.250,0.000,dishwasher,0.000,48.896
 ElectricEquipment Internal Gains Nominal, REFRIGERATOR2_FRONTROW_BOTTOMFLOOR,REFRIGERATOR,LIVING_UNIT2_FRONTROW_BOTTOMFLOOR,111.52,2.0,91.058,0.816,45.529,0.000,1.000,0.000,0.000,refrigerator,66.598,91.058
 ElectricEquipment Internal Gains Nominal, CLOTHESWASHER2_FRONTROW_BOTTOMFLOOR,CLOTHESWASHER,LIVING_UNIT2_FRONTROW_BOTTOMFLOOR,111.52,2.0,23.732,0.213,11.866,0.000,0.800,0.200,0.000,clotheswasher,0.000,21.193
 ElectricEquipment Internal Gains Nominal, ELECTRIC_DRYER2_FRONTROW_BOTTOMFLOOR,CLOTHESDRYER,LIVING_UNIT2_FRONTROW_BOTTOMFLOOR,111.52,2.0,177.596,1.592,88.798,5.000E-002,0.150,0.800,0.000,electric_dryer,0.000,177.596
 ElectricEquipment Internal Gains Nominal, ELECTRIC_RANGE2_FRONTROW_BOTTOMFLOOR,COOKINGRANGE,LIVING_UNIT2_FRONTROW_BOTTOMFLOOR,111.52,2.0,206.727,1.854,103.363,0.300,0.400,0.300,0.000,electric_range,4.868,206.727
 ElectricEquipment Internal Gains Nominal, TELEVISION2_FRONTROW_BOTTOMFLOOR,INTERIORLIGHTING,LIVING_UNIT2_FRONTROW_BOTTOMFLOOR,111.52,2.0,0.000,0.000,0.000,0.000,1.000,0.000,0.000,television,0.000,0.000
 ElectricEquipment Internal Gains Nominal, ELECTRIC_MELS2_FRONTROW_BOTTOMFLOOR,MISCPLUGLOAD,LIVING_UNIT2_FRONTROW_BOTTOMFLOOR,111.52,2.0,440.553,3.950,220.277,6.000E-002,0.690,0.250,0.000,electric_mels,227.776,440.553
 ElectricEquipment Internal Gains Nominal, IECC_ADJ2_FRONTROW_BOTTOMFLOOR,MISCPLUGLOAD,LIVING_UNIT2_FRONTROW_BOTTOMFLOOR,111.52,2.0,29.231,0.262,14.616,6.244E-002,0.412,0.251,0.275,IECC_adj,15.113,29.231
 ElectricEquipment Internal Gains Nominal, DISHWASHER3_FRONTROW_BOTTOMFLOOR,DISHWASHER,LIVING_UNIT3_FRONTROW_BOTTOMFLOOR,111.52,2.0,54.754,0.491,27.377,0.150,0.600,0.250,0.000,dishwasher,0.000,48.896
 ElectricEquipment Internal Gains Nominal, REFRIGERATOR3_FRONTROW_BOTTOMFLOOR,REFRIGERATOR,LIVING_UNIT3_FRONTROW_BOTTOMFLOOR,111.52,2.0,91.058,0.816,45.529,0.000,1.000,0.000,0.000,refrigerator,66.598,91.058
 ElectricEquipment Internal Gains Nominal, CLOTHESWASHER3_FRONTROW_BOTTOMFLOOR,CLOTHESWASHER,LIVING_UNIT3_FRONTROW_BOTTOMFLOOR,111.52,2.0,23.732,0.213,11.866,0.000,0.800,0.200,0.000,clotheswasher,0.000,21.193
 ElectricEquipment Internal Gains Nominal, ELECTRIC_DRYER3_FRONTROW_BOTTOMFLOOR,CLOTHESDRYER,LIVING_UNIT3_FRONTROW_BOTTOMFLOOR,111.52,2.0,177.596,1.592,88.798,5.000E-002,0.150,0.800,0.000,electric_dryer,0.000,177.596
 ElectricEquipment Internal Gains Nominal, ELECTRIC_RANGE3_FRONTROW_BOTTOMFLOOR,COOKINGRANGE,LIVING_UNIT3_FRONTROW_BOTTOMFLOOR,111.52,2.0,206.727,1.854,103.363,0.300,0.400,0.300,0.000,electric_range,4.868,206.727
 ElectricEquipment Internal Gains Nominal, TELEVISION3_FRONTROW_BOTTOMFLOOR,INTERIORLIGHTING,LIVING_UNIT3_FRONTROW_BOTTOMFLOOR,111.52,2.0,0.000,0.000,0.000,0.000,1.000,0.000,0.000,television,0.000,0.000
 ElectricEquipment Internal Gains Nominal, ELECTRIC_MELS3_FRONTROW_BOTTOMFLOOR,MISCPLUGLOAD,LIVING_UNIT3_FRONTROW_BOTTOMFLOOR,111.52,2.0,440.553,3.950,220.277,6.000E-002,0.690,0.250,0.000,electric_mels,227.776,440.553
 ElectricEquipment Internal Gains Nominal, IECC_ADJ3_FRONTROW_BOTTOMFLOOR,MISCPLUGLOAD,LIVING_UNIT3_FRONTROW_BOTTOMFLOOR,111.52,2.0,29.231,0.262,14.616,6.244E-002,0.412,0.251,0.275,IECC_adj,15.113,29.231
 ElectricEquipment Internal Gains Nominal, DISHWASHER1_BACKROW_BOTTOMFLOOR,DISHWASHER,LIVING_UNIT1_BACKROW_BOTTOMFLOOR,111.52,2.0,54.754,0.491,27.377,0.150,0.600,0.250,0.000,dishwasher,0.000,48.896
 ElectricEquipment Internal Gains Nominal, REFRIGERATOR1_BACKROW_BOTTOMFLOOR,REFRIGERATOR,LIVING_UNIT1_BACKROW_BOTTOMFLOOR,111.52,2.0,91.058,0.816,45.529,0.000,1.000,0.000,0.000,refrigerator,66.598,91.058
 ElectricEquipment Internal Gains Nominal, CLOTHESWASHER1_BACKROW_BOTTOMFLOOR,CLOTHESWASHER,LIVING_UNIT1_BACKROW_BOTTOMFLOOR,111.52,2.0,23.732,0.213,11.866,0.000,0.800,0.200,0.000,clotheswasher,0.000,21.193
 ElectricEquipment Internal Gains Nominal, ELECTRIC_DRYER1_BACKROW_BOTTOMFLOOR,CLOTHESDRYER,LIVING_UNIT1_BACKROW_BOTTOMFLOOR,111.52,2.0,177.596,1.592,88.798,5.000E-002,0.150,0.800,0.000,electric_dryer,0.000,177.596
 ElectricEquipment Internal Gains Nominal, ELECTRIC_RANGE1_BACKROW_BOTTOMFLOOR,COOKINGRANGE,LIVING_UNIT1_BACKROW_BOTTOMFLOOR,111.52,2.0,206.727,1.854,103.363,0.300,0.400,0.300,0.000,electric_range,4.868,206.727
 ElectricEquipment Internal Gains Nominal, TELEVISION1_BACKROW_BOTTOMFLOOR,INTERIORLIGHTING,LIVING_UNIT1_BACKROW_BOTTOMFLOOR,111.52,2.0,0.000,0.000,0.000,0.000,1.000,0.000,0.000,television,0.000,0.000
 ElectricEquipment Internal Gains Nominal, ELECTRIC_MELS1_BACKROW_BOTTOMFLOOR,MISCPLUGLOAD,LIVING_UNIT1_BACKROW_BOTTOMFLOOR,111.52,2.0,440.553,3.950,220.277,6.000E-002,0.690,0.250,0.000,electric_mels,227.776,440.553
 ElectricEquipment Internal Gains Nominal, IECC_ADJ1_BACKROW_BOTTOMFLOOR,MISCPLUGLOAD,LIVING_UNIT1_BACKROW_BOTTOMFLOOR,111.52,2.0,29.231,0.262,14.616,6.244E-002,0.412,0.251,0.275,IECC_adj,15.113,29.231
 ElectricEquipment Internal Gains Nominal, DISHWASHER2_BACKROW_BOTTOMFLOOR,DISHWASHER,LIVING_UNIT2_BACKROW_BOTTOMFLOOR,111.52,2.0,54.754,0.491,27.377,0.150,0.600,0.250,0.000,dishwasher,0.000,48.896
 ElectricEquipment Internal Gains Nominal, REFRIGERATOR2_BACKROW_BOTTOMFLOOR,REFRIGERATOR,LIVING_UNIT2_BACKROW_BOTTOMFLOOR,111.52,2.0,91.058,0.816,45.529,0.000,1.000,0.000,0.000,refrigerator,66.598,91.058
 ElectricEquipment Internal Gains Nominal, CLOTHESWASHER2_BACKROW_BOTTOMFLOOR,CLOTHESWASHER,LIVING_UNIT2_BACKROW_BOTTOMFLOOR,111.52,2.0,23.732,0.213,11.866,0.000,0.800,0.200,0.000,clotheswasher,0.000,21.193
 ElectricEquipment Internal Gains Nominal, ELECTRIC_DRYER2_BACKROW_BOTTOMFLOOR,CLOTHESDRYER,LIVING_UNIT2_BACKROW_BOTTOMFLOOR,111.52,2.0,177.596,1.592,88.798,5.000E-002,0.150,0.800,0.000,electric_dryer,0.000,177.596
 ElectricEquipment Internal Gains Nominal, ELECTRIC_RANGE2_BACKROW_BOTTOMFLOOR,COOKINGRANGE,LIVING_UNIT2_BACKROW_BOTTOMFLOOR,111.52,2.0,206.727,1.854,103.363,0.300,0.400,0.300,0.000,electric_range,4.868,206.727
 ElectricEquipment Internal Gains Nominal, TELEVISION2_BACKROW_BOTTOMFLOOR,INTERIORLIGHTING,LIVING_UNIT2_BACKROW_BOTTOMFLOOR,111.52,2.0,0.000,0.000,0.000,0.000,1.000,0.000,0.000,television,0.000,0.000
 ElectricEquipment Internal Gains Nominal, ELECTRIC_MELS2_BACKROW_BOTTOMFLOOR,MISCPLUGLOAD,LIVING_UNIT2_BACKROW_BOTTOMFLOOR,111.52,2.0,440.553,3.950,220.277,6.000E-002,0.690,0.250,0.000,electric_mels,227.776,440.553
 ElectricEquipment Internal Gains Nominal, IECC_ADJ2_BACKROW_BOTTOMFLOOR,MISCPLUGLOAD,LIVING_UNIT2_BACKROW_BOTTOMFLOOR,111.52,2.0,29.231,0.262,14.616,6.244E-002,0.412,0.251,0.275,IECC_adj,15.113,29.231
 ElectricEquipment Internal Gains Nominal, DISHWASHER3_BACKROW_BOTTOMFLOOR,DISHWASHER,LIVING_UNIT3_BACKROW_BOTTOMFLOOR,111.52,2.0,54.754,0.491,27.377,0.150,0.600,0.250,0.000,dishwasher,0.000,48.896
 ElectricEquipment Internal Gains Nominal, REFRIGERATOR3_BACKROW_BOTTOMFLOOR,REFRIGERATOR,LIVING_UNIT3_BACKROW_BOTTOMFLOOR,111.52,2.0,91.058,0.816,45.529,0.000,1.000,0.000,0.000,refrigerator,66.598,91.058
 ElectricEquipment Internal Gains Nominal, CLOTHESWASHER3_BACKROW_BOTTOMFLOOR,CLOTHESWASHER,LIVING_UNIT3_BACKROW_BOTTOMFLOOR,111.52,2.0,23.732,0.213,11.866,0.000,0.800,0.200,0.000,clotheswasher,0.000,21.193
 ElectricEquipment Internal Gains Nominal, ELECTRIC_DRYER3_BACKROW_BOTTOMFLOOR,CLOTHESDRYER,LIVING_UNIT3_BACKROW_BOTTOMFLOOR,111.52,2.0,177.596,1.592,88.798,5.000E-002,0.150,0.800,0.000,electric_dryer,0.000,177.596
 ElectricEquipment Internal Gains Nominal, ELECTRIC_RANGE3_BACKROW_BOTTOMFLOOR,COOKINGRANGE,LIVING_UNIT3_BACKROW_BOTTOMFLOOR,111.52,2.0,206.727,1.854,103.363,0.300,0.400,0.300,0.000,electric_range,4.868,206.727
 ElectricEquipment Internal Gains Nominal, TELEVISION3_BACKROW_BOTTOMFLOOR,INTERIORLIGHTING,LIVING_UNIT3_BACKROW_BOTTOMFLOOR,111.52,2.0,0.000,0.000,0.000,0.000,1.000,0.000,0.000,television,0.000,0.000
 ElectricEquipment Internal Gains Nominal, ELECTRIC_MELS3_BACKROW_BOTTOMFLOOR,MISCPLUGLOAD,LIVING_UNIT3_BACKROW_BOTTOMFLOOR,111.52,2.0,440.553,3.950,220.277,6.000E-002,0.690,0.250,0.000,electric_mels,227.776,440.553
 ElectricEquipment Internal Gains Nominal, IECC_ADJ3_BACKROW_BOTTOMFLOOR,MISCPLUGLOAD,LIVING_UNIT3_BACKROW_BOTTOMFLOOR,111.52,2.0,29.231,0.262,14.616,6.244E-002,0.412,0.251,0.275,IECC_adj,15.113,29.231
 ElectricEquipment Internal Gains Nominal, DISHWASHER1_FRONTROW_MIDDLEFLOOR,DISHWASHER,LIVING_UNIT1_FRONTROW_MIDDLEFLOOR,111.52,2.0,54.754,0.491,27.377,0.150,0.600,0.250,0.000,dishwasher,0.000,48.896
 ElectricEquipment Internal Gains Nominal, REFRIGERATOR1_FRONTROW_MIDDLEFLOOR,REFRIGERATOR,LIVING_UNIT1_FRONTROW_MIDDLEFLOOR,111.52,2.0,91.058,0.816,45.529,0.000,1.000,0.000,0.000,refrigerator,66.598,91.058
 ElectricEquipment Internal Gains Nominal, CLOTHESWASHER1_FRONTROW_MIDDLEFLOOR,CLOTHESWASHER,LIVING_UNIT1_FRONTROW_MIDDLEFLOOR,111.52,2.0,23.732,0.213,11.866,0.000,0.800,0.200,0.000,clotheswasher,0.000,21.193
 ElectricEquipment Internal Gains Nominal, ELECTRIC_DRYER1_FRONTROW_MIDDLEFLOOR,CLOTHESDRYER,LIVING_UNIT1_FRONTROW_MIDDLEFLOOR,111.52,2.0,177.596,1.592,88.798,5.000E-002,0.150,0.800,0.000,electric_dryer,0.000,177.596
 ElectricEquipment Internal Gains Nominal, ELECTRIC_RANGE1_FRONTROW_MIDDLEFLOOR,COOKINGRANGE,LIVING_UNIT1_FRONTROW_MIDDLEFLOOR,111.52,2.0,206.727,1.854,103.363,0.300,0.400,0.300,0.000,electric_range,4.868,206.727
 ElectricEquipment Internal Gains Nominal, TELEVISION1_FRONTROW_MIDDLEFLOOR,INTERIORLIGHTING,LIVING_UNIT1_FRONTROW_MIDDLEFLOOR,111.52,2.0,0.000,0.000,0.000,0.000,1.000,0.000,0.000,television,0.000,0.000
 ElectricEquipment Internal Gains Nominal, ELECTRIC_MELS1_FRONTROW_MIDDLEFLOOR,MISCPLUGLOAD,LIVING_UNIT1_FRONTROW_MIDDLEFLOOR,111.52,2.0,440.553,3.950,220.277,6.000E-002,0.690,0.250,0.000,electric_mels,227.776,440.553
 ElectricEquipment Internal Gains Nominal, IECC_ADJ1_FRONTROW_MIDDLEFLOOR,MISCPLUGLOAD,LIVING_UNIT1_FRONTROW_MIDDLEFLOOR,111.52,2.0,29.231,0.262,14.616,6.244E-002,0.412,0.251,0.275,IECC_adj,15.113,29.231
 ElectricEquipment Internal Gains Nominal, DISHWASHER2_FRONTROW_MIDDLEFLOOR,DISHWASHER,LIVING_UNIT2_FRONTROW_MIDDLEFLOOR,111.52,2.0,54.754,0.491,27.377,0.150,0.600,0.250,0.000,dishwasher,0.000,48.896
 ElectricEquipment Internal Gains Nominal, REFRIGERATOR2_FRONTROW_MIDDLEFLOOR,REFRIGERATOR,LIVING_UNIT2_FRONTROW_MIDDLEFLOOR,111.52,2.0,91.058,0.816,45.529,0.000,1.000,0.000,0.000,refrigerator,66.598,91.058
 ElectricEquipment Internal Gains Nominal, CLOTHESWASHER2_FRONTROW_MIDDLEFLOOR,CLOTHESWASHER,LIVING_UNIT2_FRONTROW_MIDDLEFLOOR,111.52,2.0,23.732,0.213,11.866,0.000,0.800,0.200,0.000,clotheswasher,0.000,21.193
 ElectricEquipment Internal Gains Nominal, ELECTRIC_DRYER2_FRONTROW_MIDDLEFLOOR,CLOTHESDRYER,LIVING_UNIT2_FRONTROW_MIDDLEFLOOR,111.52,2.0,177.596,1.592,88.798,5.000E-002,0.150,0.800,0.000,electric_dryer,0.000,177.596
 ElectricEquipment Internal Gains Nominal, ELECTRIC_RANGE2_FRONTROW_MIDDLEFLOOR,COOKINGRANGE,LIVING_UNIT2_FRONTROW_MIDDLEFLOOR,111.52,2.0,206.727,1.854,103.363,0.300,0.400,0.300,0.000,electric_range,4.868,206.727
 ElectricEquipment Internal Gains Nominal, TELEVISION2_FRONTROW_MIDDLEFLOOR,INTERIORLIGHTING,LIVING_UNIT2_FRONTROW_MIDDLEFLOOR,111.52,2.0,0.000,0.000,0.000,0.000,1.000,0.000,0.000,television,0.000,0.000
 ElectricEquipment Internal Gains Nominal, ELECTRIC_MELS2_FRONTROW_MIDDLEFLOOR,MISCPLUGLOAD,LIVING_UNIT2_FRONTROW_MIDDLEFLOOR,111.52,2.0,440.553,3.950,220.277,6.000E-002,0.690,0.250,0.000,electric_mels,227.776,440.553
 ElectricEquipment Internal Gains Nominal, IECC_ADJ2_FRONTROW_MIDDLEFLOOR,MISCPLUGLOAD,LIVING_UNIT2_FRONTROW_MIDDLEFLOOR,111.52,2.0,29.231,0.262,14.616,6.244E-002,0.412,0.251,0.275,IECC_adj,15.113,29.231
 ElectricEquipment Internal Gains Nominal, DISHWASHER3_FRONTROW_MIDDLEFLOOR,DISHWASHER,LIVING_UNIT3_FRONTROW_MIDDLEFLOOR,111.52,2.0,54.754,0.491,27.377,0.150,0.600,0.250,0.000,dishwasher,0.000,48.896
 ElectricEquipment Internal Gains Nominal, REFRIGERATOR3_FRONTROW_MIDDLEFLOOR,REFRIGERATOR,LIVING_UNIT3_FRONTROW_MIDDLEFLOOR,111.52,2.0,91.058,0.816,45.529,0.000,1.000,0.000,0.000,refrigerator,66.598,91.058
 ElectricEquipment Internal Gains Nominal, CLOTHESWASHER3_FRONTROW_MIDDLEFLOOR,CLOTHESWASHER,LIVING_UNIT3_FRONTROW_MIDDLEFLOOR,111.52,2.0,23.732,0.213,11.866,0.000,0.800,0.200,0.000,clotheswasher,0.000,21.193
 ElectricEquipment Internal Gains Nominal, ELECTRIC_DRYER3_FRONTROW_MIDDLEFLOOR,CLOTHESDRYER,LIVING_UNIT3_FRONTROW_MIDDLEFLOOR,111.52,2.0,177.596,1.592,88.798,5.000E-002,0.150,0.800,0.000,electric_dryer,0.000,177.596
 ElectricEquipment Internal Gains Nominal, ELECTRIC_RANGE3_FRONTROW_MIDDLEFLOOR,COOKINGRANGE,LIVING_UNIT3_FRONTROW_MIDDLEFLOOR,111.52,2.0,206.727,1.854,103.363,0.300,0.400,0.300,0.000,electric_range,4.868,206.727
 ElectricEquipment Internal Gains Nominal, TELEVISION3_FRONTROW_MIDDLEFLOOR,INTERIORLIGHTING,LIVING_UNIT3_FRONTROW_MIDDLEFLOOR,111.52,2.0,0.000,0.000,0.000,0.000,1.000,0.000,0.000,television,0.000,0.000
 ElectricEquipment Internal Gains Nominal, ELECTRIC_MELS3_FRONTROW_MIDDLEFLOOR,MISCPLUGLOAD,LIVING_UNIT3_FRONTROW_MIDDLEFLOOR,111.52,2.0,440.553,3.950,220.277,6.000E-002,0.690,0.250,0.000,electric_mels,227.776,440.553
 ElectricEquipment Internal Gains Nominal, IECC_ADJ3_FRONTROW_MIDDLEFLOOR,MISCPLUGLOAD,LIVING_UNIT3_FRONTROW_MIDDLEFLOOR,111.52,2.0,29.231,0.262,14.616,6.244E-002,0.412,0.251,0.275,IECC_adj,15.113,29.231
 ElectricEquipment Internal Gains Nominal, DISHWASHER1_BACKROW_MIDDLEFLOOR,DISHWASHER,LIVING_UNIT1_BACKROW_MIDDLEFLOOR,111.52,2.0,54.754,0.491,27.377,0.150,0.600,0.250,0.000,dishwasher,0.000,48.896
 ElectricEquipment Internal Gains Nominal, REFRIGERATOR1_BACKROW_MIDDLEFLOOR,REFRIGERATOR,LIVING_UNIT1_BACKROW_MIDDLEFLOOR,111.52,2.0,91.058,0.816,45.529,0.000,1.000,0.000,0.000,refrigerator,66.598,91.058
 ElectricEquipment Internal Gains Nominal, CLOTHESWASHER1_BACKROW_MIDDLEFLOOR,CLOTHESWASHER,LIVING_UNIT1_BACKROW_MIDDLEFLOOR,111.52,2.0,23.732,0.213,11.866,0.000,0.800,0.200,0.000,clotheswasher,0.000,21.193
 ElectricEquipment Internal Gains Nominal, ELECTRIC_DRYER1_BACKROW_MIDDLEFLOOR,CLOTHESDRYER,LIVING_UNIT1_BACKROW_MIDDLEFLOOR,111.52,2.0,177.596,1.592,88.798,5.000E-002,0.150,0.800,0.000,electric_dryer,0.000,177.596
 ElectricEquipment Internal Gains Nominal, ELECTRIC_RANGE1_BACKROW_MIDDLEFLOOR,COOKINGRANGE,LIVING_UNIT1_BACKROW_MIDDLEFLOOR,111.52,2.0,206.727,1.854,103.363,0.300,0.400,0.300,0.000,electric_range,4.868,206.727
 ElectricEquipment Internal Gains Nominal, TELEVISION1_BACKROW_MIDDLEFLOOR,INTERIORLIGHTING,LIVING_UNIT1_BACKROW_MIDDLEFLOOR,111.52,2.0,0.000,0.000,0.000,0.000,1.000,0.000,0.000,television,0.000,0.000
 ElectricEquipment Internal Gains Nominal, ELECTRIC_MELS1_BACKROW_MIDDLEFLOOR,MISCPLUGLOAD,LIVING_UNIT1_BACKROW_MIDDLEFLOOR,111.52,2.0,440.553,3.950,220.277,6.000E-002,0.690,0.250,0.000,electric_mels,227.776,440.553
 ElectricEquipment Internal Gains Nominal, IECC_ADJ1_BACKROW_MIDDLEFLOOR,MISCPLUGLOAD,LIVING_UNIT1_BACKROW_MIDDLEFLOOR,111.52,2.0,29.231,0.262,14.616,6.244E-002,0.412,0.251,0.275,IECC_adj,15.113,29.231
 ElectricEquipment Internal Gains Nominal, DISHWASHER2_BACKROW_MIDDLEFLOOR,DISHWASHER,LIVING_UNIT2_BACKROW_MIDDLEFLOOR,111.52,2.0,54.754,0.491,27.377,0.150,0.600,0.250,0.000,dishwasher,0.000,48.896
 ElectricEquipment Internal Gains Nominal, REFRIGERATOR2_BACKROW_MIDDLEFLOOR,REFRIGERATOR,LIVING_UNIT2_BACKROW_MIDDLEFLOOR,111.52,2.0,91.058,0.816,45.529,0.000,1.000,0.000,0.000,refrigerator,66.598,91.058
 ElectricEquipment Internal Gains Nominal, CLOTHESWASHER2_BACKROW_MIDDLEFLOOR,CLOTHESWASHER,LIVING_UNIT2_BACKROW_MIDDLEFLOOR,111.52,2.0,23.732,0.213,11.866,0.000,0.800,0.200,0.000,clotheswasher,0.000,21.193
 ElectricEquipment Internal Gains Nominal, ELECTRIC_DRYER2_BACKROW_MIDDLEFLOOR,CLOTHESDRYER,LIVING_UNIT2_BACKROW_MIDDLEFLOOR,111.52,2.0,177.596,1.592,88.798,5.000E-002,0.150,0.800,0.000,electric_dryer,0.000,177.596
 ElectricEquipment Internal Gains Nominal, ELECTRIC_RANGE2_BACKROW_MIDDLEFLOOR,COOKINGRANGE,LIVING_UNIT2_BACKROW_MIDDLEFLOOR,111.52,2.0,206.727,1.854,103.363,0.300,0.400,0.300,0.000,electric_range,4.868,206.727
 ElectricEquipment Internal Gains Nominal, TELEVISION2_BACKROW_MIDDLEFLOOR,INTERIORLIGHTING,LIVING_UNIT2_BACKROW_MIDDLEFLOOR,111.52,2.0,0.000,0.000,0.000,0.000,1.000,0.000,0.000,television,0.000,0.000
 ElectricEquipment Internal Gains Nominal, ELECTRIC_MELS2_BACKROW_MIDDLEFLOOR,MISCPLUGLOAD,LIVING_UNIT2_BACKROW_MIDDLEFLOOR,111.52,2.0,440.553,3.950,220.277,6.000E-002,0.690,0.250,0.000,electric_mels,227.776,440.553
 ElectricEquipment Internal Gains Nominal, IECC_ADJ2_BACKROW_MIDDLEFLOOR,MISCPLUGLOAD,LIVING_UNIT2_BACKROW_MIDDLEFLOOR,111.52,2.0,29.231,0.262,14.616,6.244E-002,0.412,0.251,0.275,IECC_adj,15.113,29.231
 ElectricEquipment Internal Gains Nominal, DISHWASHER3_BACKROW_MIDDLEFLOOR,DISHWASHER,LIVING_UNIT3_BACKROW_MIDDLEFLOOR,111.52,2.0,54.754,0.491,27.377,0.150,0.600,0.250,0.000,dishwasher,0.000,48.896
 ElectricEquipment Internal Gains Nominal, REFRIGERATOR3_BACKROW_MIDDLEFLOOR,REFRIGERATOR,LIVING_UNIT3_BACKROW_MIDDLEFLOOR,111.52,2.0,91.058,0.816,45.529,0.000,1.000,0.000,0.000,refrigerator,66.598,91.058
 ElectricEquipment Internal Gains Nominal, CLOTHESWASHER3_BACKROW_MIDDLEFLOOR,CLOTHESWASHER,LIVING_UNIT3_BACKROW_MIDDLEFLOOR,111.52,2.0,23.732,0.213,11.866,0.000,0.800,0.200,0.000,clotheswasher,0.000,21.193
 ElectricEquipment Internal Gains Nominal, ELECTRIC_DRYER3_BACKROW_MIDDLEFLOOR,CLOTHESDRYER,LIVING_UNIT3_BACKROW_MIDDLEFLOOR,111.52,2.0,177.596,1.592,88.798,5.000E-002,0.150,0.800,0.000,electric_dryer,0.000,177.596
 ElectricEquipment Internal Gains Nominal, ELECTRIC_RANGE3_BACKROW_MIDDLEFLOOR,COOKINGRANGE,LIVING_UNIT3_BACKROW_MIDDLEFLOOR,111.52,2.0,206.727,1.854,103.363,0.300,0.400,0.300,0.000,electric_range,4.868,206.727
 ElectricEquipment Internal Gains Nominal, TELEVISION3_BACKROW_MIDDLEFLOOR,INTERIORLIGHTING,LIVING_UNIT3_BACKROW_MIDDLEFLOOR,111.52,2.0,0.000,0.000,0.000,0.000,1.000,0.000,0.000,television,0.000,0.000
 ElectricEquipment Internal Gains Nominal, ELECTRIC_MELS3_BACKROW_MIDDLEFLOOR,MISCPLUGLOAD,LIVING_UNIT3_BACKROW_MIDDLEFLOOR,111.52,2.0,440.553,3.950,220.277,6.000E-002,0.690,0.250,0.000,electric_mels,227.776,440.553
 ElectricEquipment Internal Gains Nominal, IECC_ADJ3_BACKROW_MIDDLEFLOOR,MISCPLUGLOAD,LIVING_UNIT3_BACKROW_MIDDLEFLOOR,111.52,2.0,29.231,0.262,14.616,6.244E-002,0.412,0.251,0.275,IECC_adj,15.113,29.231
 ElectricEquipment Internal Gains Nominal, DISHWASHER1_FRONTROW_TOPFLOOR,DISHWASHER,LIVING_UNIT1_FRONTROW_TOPFLOOR,111.52,2.0,54.754,0.491,27.377,0.150,0.600,0.250,0.000,dishwasher,0.000,48.896
 ElectricEquipment Internal Gains Nominal, REFRIGERATOR1_FRONTROW_TOPFLOOR,REFRIGERATOR,LIVING_UNIT1_FRONTROW_TOPFLOOR,111.52,2.0,91.058,0.816,45.529,0.000,1.000,0.000,0.000,refrigerator,66.598,91.058
 ElectricEquipment Internal Gains Nominal, CLOTHESWASHER1_FRONTROW_TOPFLOOR,CLOTHESWASHER,LIVING_UNIT1_FRONTROW_TOPFLOOR,111.52,2.0,23.732,0.213,11.866,0.000,0.800,0.200,0.000,clotheswasher,0.000,21.193
 ElectricEquipment Internal Gains Nominal, ELECTRIC_DRYER1_FRONTROW_TOPFLOOR,CLOTHESDRYER,LIVING_UNIT1_FRONTROW_TOPFLOOR,111.52,2.0,177.596,1.592,88.798,5.000E-002,0.150,0.800,0.000,electric_dryer,0.000,177.596
 ElectricEquipment Internal Gains Nominal, ELECTRIC_RANGE1_FRONTROW_TOPFLOOR,COOKINGRANGE,LIVING_UNIT1_FRONTROW_TOPFLOOR,111.52,2.0,206.727,1.854,103.363,0.300,0.400,0.300,0.000,electric_range,4.868,206.727
 ElectricEquipment Internal Gains Nominal, TELEVISION1_FRONTROW_TOPFLOOR,INTERIORLIGHTING,LIVING_UNIT1_FRONTROW_TOPFLOOR,111.52,2.0,0.000,0.000,0.000,0.000,1.000,0.000,0.000,television,0.000,0.000
 ElectricEquipment Internal Gains Nominal, ELECTRIC_MELS1_FRONTROW_TOPFLOOR,MISCPLUGLOAD,LIVING_UNIT1_FRONTROW_TOPFLOOR,111.52,2.0,440.553,3.950,220.277,6.000E-002,0.690,0.250,0.000,electric_mels,227.776,440.553
 ElectricEquipment Internal Gains Nominal, IECC_ADJ1_FRONTROW_TOPFLOOR,MISCPLUGLOAD,LIVING_UNIT1_FRONTROW_TOPFLOOR,111.52,2.0,29.231,0.262,14.616,6.244E-002,0.412,0.251,0.275,IECC_adj,15.113,29.231
 ElectricEquipment Internal Gains Nominal, DISHWASHER2_FRONTROW_TOPFLOOR,DISHWASHER,LIVING_UNIT2_FRONTROW_TOPFLOOR,111.52,2.0,54.754,0.491,27.377,0.150,0.600,0.250,0.000,dishwasher,0.000,48.896
 ElectricEquipment Internal Gains Nominal, REFRIGERATOR2_FRONTROW_TOPFLOOR,REFRIGERATOR,LIVING_UNIT2_FRONTROW_TOPFLOOR,111.52,2.0,91.058,0.816,45.529,0.000,1.000,0.000,0.000,refrigerator,66.598,91.058
 ElectricEquipment Internal Gains Nominal, CLOTHESWASHER2_FRONTROW_TOPFLOOR,CLOTHESWASHER,LIVING_UNIT2_FRONTROW_TOPFLOOR,111.52,2.0,23.732,0.213,11.866,0.000,0.800,0.200,0.000,clotheswasher,0.000,21.193
 ElectricEquipment Internal Gains Nominal, ELECTRIC_DRYER2_FRONTROW_TOPFLOOR,CLOTHESDRYER,LIVING_UNIT2_FRONTROW_TOPFLOOR,111.52,2.0,177.596,1.592,88.798,5.000E-002,0.150,0.800,0.000,electric_dryer,0.000,177.596
 ElectricEquipment Internal Gains Nominal, ELECTRIC_RANGE2_FRONTROW_TOPFLOOR,COOKINGRANGE,LIVING_UNIT2_FRONTROW_TOPFLOOR,111.52,2.0,206.727,1.854,103.363,0.300,0.400,0.300,0.000,electric_range,4.868,206.727
 ElectricEquipment Internal Gains Nominal, TELEVISION2_FRONTROW_TOPFLOOR,INTERIORLIGHTING,LIVING_UNIT2_FRONTROW_TOPFLOOR,111.52,2.0,0.000,0.000,0.000,0.000,1.000,0.000,0.000,television,0.000,0.000
 ElectricEquipment Internal Gains Nominal, ELECTRIC_MELS2_FRONTROW_TOPFLOOR,MISCPLUGLOAD,LIVING_UNIT2_FRONTROW_TOPFLOOR,111.52,2.0,440.553,3.950,220.277,6.000E-002,0.690,0.250,0.000,electric_mels,227.776,440.553
 ElectricEquipment Internal Gains Nominal, IECC_ADJ2_FRONTROW_TOPFLOOR,MISCPLUGLOAD,LIVING_UNIT2_FRONTROW_TOPFLOOR,111.52,2.0,29.231,0.262,14.616,6.244E-002,0.412,0.251,0.275,IECC_adj,15.113,29.231
 ElectricEquipment Internal Gains Nominal, DISHWASHER3_FRONTROW_TOPFLOOR,DISHWASHER,LIVING_UNIT3_FRONTROW_TOPFLOOR,111.52,2.0,54.754,0.491,27.377,0.150,0.600,0.250,0.000,dishwasher,0.000,48.896
 ElectricEquipment Internal Gains Nominal, REFRIGERATOR3_FRONTROW_TOPFLOOR,REFRIGERATOR,LIVING_UNIT3_FRONTROW_TOPFLOOR,111.52,2.0,91.058,0.816,45.529,0.000,1.000,0.000,0.000,refrigerator,66.598,91.058
 ElectricEquipment Internal Gains Nominal, CLOTHESWASHER3_FRONTROW_TOPFLOOR,CLOTHESWASHER,LIVING_UNIT3_FRONTROW_TOPFLOOR,111.52,2.0,23.732,0.213,11.866,0.000,0.800,0.200,0.000,clotheswasher,0.000,21.193
 ElectricEquipment Internal Gains Nominal, ELECTRIC_DRYER3_FRONTROW_TOPFLOOR,CLOTHESDRYER,LIVING_UNIT3_FRONTROW_TOPFLOOR,111.52,2.0,177.596,1.592,88.798,5.000E-002,0.150,0.800,0.000,electric_dryer,0.000,177.596
 ElectricEquipment Internal Gains Nominal, ELECTRIC_RANGE3_FRONTROW_TOPFLOOR,COOKINGRANGE,LIVING_UNIT3_FRONTROW_TOPFLOOR,111.52,2.0,206.727,1.854,103.363,0.300,0.400,0.300,0.000,electric_range,4.868,206.727
 ElectricEquipment Internal Gains Nominal, TELEVISION3_FRONTROW_TOPFLOOR,INTERIORLIGHTING,LIVING_UNIT3_FRONTROW_TOPFLOOR,111.52,2.0,0.000,0.000,0.000,0.000,1.000,0.000,0.000,television,0.000,0.000
 ElectricEquipment Internal Gains Nominal, ELECTRIC_MELS3_FRONTROW_TOPFLOOR,MISCPLUGLOAD,LIVING_UNIT3_FRONTROW_TOPFLOOR,111.52,2.0,440.553,3.950,220.277,6.000E-002,0.690,0.250,0.000,electric_mels,227.776,440.553
 ElectricEquipment Internal Gains Nominal, IECC_ADJ3_FRONTROW_TOPFLOOR,MISCPLUGLOAD,LIVING_UNIT3_FRONTROW_TOPFLOOR,111.52,2.0,29.231,0.262,14.616,6.244E-002,0.412,0.251,0.275,IECC_adj,15.113,29.231
 ElectricEquipment Internal Gains Nominal, DISHWASHER1_BACKROW_TOPFLOOR,DISHWASHER,LIVING_UNIT1_BACKROW_TOPFLOOR,111.52,2.0,54.754,0.491,27.377,0.150,0.600,0.250,0.000,dishwasher,0.000,48.896
 ElectricEquipment Internal Gains Nominal, REFRIGERATOR1_BACKROW_TOPFLOOR,REFRIGERATOR,LIVING_UNIT1_BACKROW_TOPFLOOR,111.52,2.0,91.058,0.816,45.529,0.000,1.000,0.000,0.000,refrigerator,66.598,91.058
 ElectricEquipment Internal Gains Nominal, CLOTHESWASHER1_BACKROW_TOPFLOOR,CLOTHESWASHER,LIVING_UNIT1_BACKROW_TOPFLOOR,111.52,2.0,23.732,0.213,11.866,0.000,0.800,0.200,0.000,clotheswasher,0.000,21.193
 ElectricEquipment Internal Gains Nominal, ELECTRIC_DRYER1_BACKROW_TOPFLOOR,CLOTHESDRYER,LIVING_UNIT1_BACKROW_TOPFLOOR,111.52,2.0,177.596,1.592,88.798,5.000E-002,0.150,0.800,0.000,electric_dryer,0.000,177.596
 ElectricEquipment Internal Gains Nominal, ELECTRIC_RANGE1_BACKROW_TOPFLOOR,COOKINGRANGE,LIVING_UNIT1_BACKROW_TOPFLOOR,111.52,2.0,206.727,1.854,103.363,0.300,0.400,0.300,0.000,electric_range,4.868,206.727
 ElectricEquipment Internal Gains Nominal, TELEVISION1_BACKROW_TOPFLOOR,INTERIORLIGHTING,LIVING_UNIT1_BACKROW_TOPFLOOR,111.52,2.0,0.000,0.000,0.000,0.000,1.000,0.000,0.000,television,0.000,0.000
 ElectricEquipment Internal Gains Nominal, ELECTRIC_MELS1_BACKROW_TOPFLOOR,MISCPLUGLOAD,LIVING_UNIT1_BACKROW_TOPFLOOR,111.52,2.0,440.553,3.950,220.277,6.000E-002,0.690,0.250,0.000,electric_mels,227.776,440.553
 ElectricEquipment Internal Gains Nominal, IECC_ADJ1_BACKROW_TOPFLOOR,MISCPLUGLOAD,LIVING_UNIT1_BACKROW_TOPFLOOR,111.52,2.0,29.231,0.262,14.616,6.244E-002,0.412,0.251,0.275,IECC_adj,15.113,29.231
 ElectricEquipment Internal Gains Nominal, DISHWASHER2_BACKROW_TOPFLOOR,DISHWASHER,LIVING_UNIT2_BACKROW_TOPFLOOR,111.52,2.0,54.754,0.491,27.377,0.150,0.600,0.250,0.000,dishwasher,0.000,48.896
 ElectricEquipment Internal Gains Nominal, REFRIGERATOR2_BACKROW_TOPFLOOR,REFRIGERATOR,LIVING_UNIT2_BACKROW_TOPFLOOR,111.52,2.0,91.058,0.816,45.529,0.000,1.000,0.000,0.000,refrigerator,66.598,91.058
 ElectricEquipment Internal Gains Nominal, CLOTHESWASHER2_BACKROW_TOPFLOOR,CLOTHESWASHER,LIVING_UNIT2_BACKROW_TOPFLOOR,111.52,2.0,23.732,0.213,11.866,0.000,0.800,0.200,0.000,clotheswasher,0.000,21.193
 ElectricEquipment Internal Gains Nominal, ELECTRIC_DRYER2_BACKROW_TOPFLOOR,CLOTHESDRYER,LIVING_UNIT2_BACKROW_TOPFLOOR,111.52,2.0,177.596,1.592,88.798,5.000E-002,0.150,0.800,0.000,electric_dryer,0.000,177.596
 ElectricEquipment Internal Gains Nominal, ELECTRIC_RANGE2_BACKROW_TOPFLOOR,COOKINGRANGE,LIVING_UNIT2_BACKROW_TOPFLOOR,111.52,2.0,206.727,1.854,103.363,0.300,0.400,0.300,0.000,electric_range,4.868,206.727
 ElectricEquipment Internal Gains Nominal, TELEVISION2_BACKROW_TOPFLOOR,INTERIORLIGHTING,LIVING_UNIT2_BACKROW_TOPFLOOR,111.52,2.0,0.000,0.000,0.000,0.000,1.000,0.000,0.000,television,0.000,0.000
 ElectricEquipment Internal Gains Nominal, ELECTRIC_MELS2_BACKROW_TOPFLOOR,MISCPLUGLOAD,LIVING_UNIT2_BACKROW_TOPFLOOR,111.52,2.0,440.553,3.950,220.277,6.000E-002,0.690,0.250,0.000,electric_mels,227.776,440.553
 ElectricEquipment Internal Gains Nominal, IECC_ADJ2_BACKROW_TOPFLOOR,MISCPLUGLOAD,LIVING_UNIT2_BACKROW_TOPFLOOR,111.52,2.0,29.231,0.262,14.616,6.244E-002,0.412,0.251,0.275,IECC_adj,15.113,29.231
 ElectricEquipment Internal Gains Nominal, DISHWASHER3_BACKROW_TOPFLOOR,DISHWASHER,LIVING_UNIT3_BACKROW_TOPFLOOR,111.52,2.0,54.754,0.491,27.377,0.150,0.600,0.250,0.000,dishwasher,0.000,48.896
 ElectricEquipment Internal Gains Nominal, REFRIGERATOR3_BACKROW_TOPFLOOR,REFRIGERATOR,LIVING_UNIT3_BACKROW_TOPFLOOR,111.52,2.0,91.058,0.816,45.529,0.000,1.000,0.000,0.000,refrigerator,66.598,91.058
 ElectricEquipment Internal Gains Nominal, CLOTHESWASHER3_BACKROW_TOPFLOOR,CLOTHESWASHER,LIVING_UNIT3_BACKROW_TOPFLOOR,111.52,2.0,23.732,0.213,11.866,0.000,0.800,0.200,0.000,clotheswasher,0.000,21.193
 ElectricEquipment Internal Gains Nominal, ELECTRIC_DRYER3_BACKROW_TOPFLOOR,CLOTHESDRYER,LIVING_UNIT3_BACKROW_TOPFLOOR,111.52,2.0,177.596,1.592,88.798,5.000E-002,0.150,0.800,0.000,electric_dryer,0.000,177.596
 ElectricEquipment Internal Gains Nominal, ELECTRIC_RANGE3_BACKROW_TOPFLOOR,COOKINGRANGE,LIVING_UNIT3_BACKROW_TOPFLOOR,111.52,2.0,206.727,1.854,103.363,0.300,0.400,0.300,0.000,electric_range,4.868,206.727
 ElectricEquipment Internal Gains Nominal, TELEVISION3_BACKROW_TOPFLOOR,INTERIORLIGHTING,LIVING_UNIT3_BACKROW_TOPFLOOR,111.52,2.0,0.000,0.000,0.000,0.000,1.000,0.000,0.000,television,0.000,0.000
 ElectricEquipment Internal Gains Nominal, ELECTRIC_MELS3_BACKROW_TOPFLOOR,MISCPLUGLOAD,LIVING_UNIT3_BACKROW_TOPFLOOR,111.52,2.0,440.553,3.950,220.277,6.000E-002,0.690,0.250,0.000,electric_mels,227.776,440.553
 ElectricEquipment Internal Gains Nominal, IECC_ADJ3_BACKROW_TOPFLOOR,MISCPLUGLOAD,LIVING_UNIT3_BACKROW_TOPFLOOR,111.52,2.0,29.231,0.262,14.616,6.244E-002,0.412,0.251,0.275,IECC_adj,15.113,29.231
! <Construction CTF>,Construction Name,Index,#Layers,#CTFs,Time Step {hours},ThermalConductance {w/m2-K},OuterThermalAbsorptance,InnerThermalAbsorptance,OuterSolarAbsorptance,InnerSolarAbsorptance,Roughness
! <Material CTF Summary>,Material Name,Thickness {m},Conductivity {w/m-K},Density {kg/m3},Specific Heat {J/kg-K},ThermalResistance {m2-K/w}
! <Material:Air>,Material Name,ThermalResistance {m2-K/w}
! <CTF>,Time,Outside,Cross,Inside,Flux (except final one)
 Construction CTF,EXTERIOR WALL,   1,   5,  10,   0.167,     0.2829    ,   0.900,   0.900,   0.700,   0.700,MediumSmooth
 Material CTF Summary,SYN_STUCCO,  0.0030,         0.086,    400.000,      878.640,  0.3524E-01
 Material CTF Summary,SHEATHING_CONSOL_LAYER,  0.0311,         0.035,     20.100,     1465.415,  0.8807    
 Material CTF Summary,OSB_7/16IN,  0.0111,         0.116,    544.627,     1213.360,  0.9555E-01
 Material CTF Summary,WALL_CONSOL_LAYER,  0.1397,         0.057,    120.801,     1036.258,   2.444    
 Material CTF Summary,DRYWALL_1/2IN,  0.0127,         0.160,    800.923,     1087.840,  0.7933E-01
 CTF,  10,      0.51360630E-08,     -0.22035233E-13,      0.91774209E-08,     -0.50676220E-13
 CTF,   9,     -0.14060012E-04,      0.39159197E-12,     -0.22958088E-04,      0.29728831E-08
 CTF,   8,      0.28980689E-02,      0.65531654E-09,      0.46215968E-02,     -0.71708779E-05
 CTF,   7,     -0.65978682E-01,      0.13350779E-06,     -0.16306378    ,      0.13238707E-02
 CTF,   6,      0.64596177    ,      0.50193482E-05,       2.1320981    ,     -0.28125917E-01
 CTF,   5,      -3.4215999    ,      0.48298777E-04,      -13.652056    ,      0.25148823    
 CTF,   4,       10.645660    ,      0.13839053E-03,       47.881148    ,      -1.1749737    
 CTF,   3,      -19.924231    ,      0.11919231E-03,      -96.040791    ,       3.0621859    
 CTF,   2,       21.976583    ,      0.26462555E-04,       109.48934    ,      -4.4404618    
 CTF,   1,      -13.118296    ,      0.91387708E-06,      -65.855375    ,       3.3273744    
 CTF,   0,       3.2593552    ,      0.33613880E-09,       16.204438    
 Construction CTF,CEILING-FLOOR-LAYER,   3,   1,   5,   0.167,      1.297    ,   0.900,   0.900,   0.700,   0.700,Rough
 Material CTF Summary,LUMBER_2X4,  0.0890,         0.115,    512.640,      767.580,  0.7709    
 CTF,   5,     -0.10726087E-01,      0.44268190E-05,     -0.10726087E-01,      0.97389233E-03
 CTF,   4,      0.31857203    ,      0.80150166E-03,      0.31857203    ,     -0.30727185E-01
 CTF,   3,      -2.8372473    ,      0.12516450E-01,      -2.8372473    ,      0.30041224    
 CTF,   2,       9.6667056    ,      0.33176537E-01,       9.6667056    ,      -1.1584571    
 CTF,   1,      -13.322214    ,      0.15207483E-01,      -13.322214    ,       1.8397512    
 CTF,   0,       6.2472388    ,      0.62260140E-03,       6.2472388    
 Construction CTF,EXTERIOR FLOOR,   4,   3,   4,   0.167,      1.702    ,   0.900,   0.900,   0.700,   0.700,Rough
 Material CTF Summary,FLOOR_CONSOL_LAYER,  0.0003,        12.990,     55.074,      916.931,  0.1955E-04
 Material CTF Summary,PLYWOOD_3/4IN,  0.0191,         0.115,    544.680,      674.540,  0.1650    
 Material CTF Summary,CARPET_N_PAD,  0.0254,         0.060,     32.037,      836.800,  0.4224    
 CTF,   4,      0.29631924E-13,     -0.40788276E-14,      0.60443234E-14,     -0.77798347E-16
 CTF,   3,     -0.11254351E-04,      0.79669069E-06,     -0.23145793E-05,      0.39394231E-13
 CTF,   2,      0.49771861    ,      0.29587917E-01,      0.78801895E-01,     -0.76025120E-05
 CTF,   1,      -8.3915550    ,      0.80192706    ,      -1.1535996    ,      0.21114735    
 CTF,   0,       9.2367617    ,      0.51139848    ,       2.4177143    
 Construction CTF,INTERIOR CEILING,   6,   2,  13,   0.167,     0.1080    ,   0.900,   0.900,   0.700,   0.700,Rough
 Material CTF Summary,CEIL_CONSOL_LAYER,  0.5665,         0.062,     41.929,      776.251,   9.179    
 Material CTF Summary,DRYWALL_1/2IN,  0.0127,         0.160,    800.923,     1087.840,  0.7933E-01
 CTF,  13,     -0.95016766E-17,     -0.11776553E-17,     -0.33255767E-09,      0.99855310E-17
 CTF,  12,      0.61338794E-09,     -0.58488406E-15,      0.16056222E-03,     -0.43490528E-09
 CTF,  11,     -0.75116140E-04,     -0.12733754E-14,     -0.83172474E-02,      0.53259175E-04
 CTF,  10,      0.23489104E-02,      0.19285539E-11,      0.16199673    ,     -0.16913697E-02
 CTF,   9,     -0.32325933E-01,      0.31831827E-09,      -1.7014869    ,      0.23684835E-01
 CTF,   8,      0.25799047    ,      0.11552332E-07,       11.081256    ,     -0.19274894    
 CTF,   7,      -1.3247958    ,      0.13607244E-06,      -47.903612    ,       1.0115855    
 CTF,   6,       4.5908388    ,      0.61202310E-06,       142.28685    ,      -3.5913725    
 CTF,   5,      -10.947340    ,      0.11168173E-05,      -294.46769    ,       8.7955522    
 CTF,   4,       17.960252    ,      0.81578039E-06,       423.45640    ,      -14.856181    
 CTF,   3,      -19.872933    ,      0.21758675E-06,      -414.30161    ,       16.962607    
 CTF,   2,       14.135270    ,      0.16726228E-07,       262.68178    ,      -12.475847    
 CTF,   1,      -5.8235685    ,      0.25078833E-09,      -97.209670    ,       5.3243306    
 CTF,   0,       1.0543411    ,     -0.72051379E-11,       15.923944    
 Construction CTF,ATTIC FLOOR,   7,   2,  13,   0.167,     0.1080    ,   0.900,   0.900,   0.700,   0.700,MediumSmooth
 Material CTF Summary,DRYWALL_1/2IN,  0.0127,         0.160,    800.923,     1087.840,  0.7933E-01
 Material CTF Summary,CEIL_CONSOL_LAYER,  0.5665,         0.062,     41.929,      776.251,   9.179    
 CTF,  13,     -0.33255767E-09,     -0.11776553E-17,     -0.95016766E-17,      0.99855310E-17
 CTF,  12,      0.16056222E-03,     -0.58488406E-15,      0.61338794E-09,     -0.43490528E-09
 CTF,  11,     -0.83172474E-02,     -0.12733754E-14,     -0.75116140E-04,      0.53259175E-04
 CTF,  10,      0.16199673    ,      0.19285539E-11,      0.23489104E-02,     -0.16913697E-02
 CTF,   9,      -1.7014869    ,      0.31831827E-09,     -0.32325933E-01,      0.23684835E-01
 CTF,   8,       11.081256    ,      0.11552332E-07,      0.25799047    ,     -0.19274894    
 CTF,   7,      -47.903612    ,      0.13607244E-06,      -1.3247958    ,       1.0115855    
 CTF,   6,       142.28685    ,      0.61202310E-06,       4.5908388    ,      -3.5913725    
 CTF,   5,      -294.46769    ,      0.11168173E-05,      -10.947340    ,       8.7955522    
 CTF,   4,       423.45640    ,      0.81578039E-06,       17.960252    ,      -14.856181    
 CTF,   3,      -414.30161    ,      0.21758675E-06,      -19.872933    ,       16.962607    
 CTF,   2,       262.68178    ,      0.16726228E-07,       14.135270    ,      -12.475847    
 CTF,   1,      -97.209670    ,      0.25078833E-09,      -5.8235685    ,       5.3243306    
 CTF,   0,       15.923944    ,     -0.72051379E-11,       1.0543411    
 Construction CTF,INTERIORWALL,   9,   3,   5,   0.167,      3.388    ,   0.900,   0.900,   0.700,   0.700,MediumSmooth
 Material CTF Summary,DRYWALL_1/2IN,  0.0127,         0.160,    800.923,     1087.840,  0.7933E-01
 Material CTF Summary,OSB_5/8IN,  0.0159,         0.116,    544.627,     1213.360,  0.1365    
 Material CTF Summary,DRYWALL_1/2IN,  0.0127,         0.160,    800.923,     1087.840,  0.7933E-01
 CTF,   5,     -0.27590492E-07,      0.65241430E-08,     -0.27590492E-07,      0.17331255E-13
 CTF,   4,      0.68608714E-03,      0.11323974E-03,      0.68608714E-03,     -0.15705033E-07
 CTF,   3,     -0.21538511    ,      0.37821720E-01,     -0.21538511    ,      0.25667047E-03
 CTF,   2,       5.0173519    ,      0.62258424    ,       5.0173519    ,     -0.50236511E-01
 CTF,   1,      -19.904252    ,      0.86481321    ,      -19.904252    ,      0.58144210    
 CTF,   0,       16.688993    ,      0.62060609E-01,       16.688993    
 Construction CTF,EXTERIOR ROOF,  11,   2,   4,   0.167,      5.358    ,   0.900,   0.900,   0.750,   0.700,MediumRough
 Material CTF Summary,ASPHALT_SHINGLE,  0.0063,         0.082,   1121.292,     1255.200,  0.7745E-01
 Material CTF Summary,OSB_1/2IN,  0.0127,         0.116,    544.627,     1213.360,  0.1092    
 CTF,   4,      0.75441920E-10,      0.23883683E-10,      0.47514224E-10,     -0.69373194E-20
 CTF,   3,     -0.33730907E-03,      0.89366797E-04,     -0.22574866E-03,      0.77828620E-10
 CTF,   2,      0.58624422    ,      0.18542418    ,      0.49024360    ,     -0.17301269E-03
 CTF,   1,      -11.299243    ,       2.8799011    ,      -8.6239668    ,      0.15905732    
 CTF,   0,       15.219762    ,       1.4410112    ,       12.640375    
 Construction CTF,EXTERIOR DOOR,  14,   1,   5,   0.167,      1.704    ,   0.900,   0.900,   0.700,   0.700,Smooth
 Material CTF Summary,DOOR_CONST,  0.0423,         0.072,    512.640,      767.580,  0.5870    
 CTF,   5,     -0.32935335E-06,      0.42931990E-07,     -0.32935335E-06,      0.47097488E-08
 CTF,   4,      0.68052310E-03,      0.12823787E-03,      0.68052310E-03,     -0.14200104E-04
 CTF,   3,     -0.11535993    ,      0.17375615E-01,     -0.11535993    ,      0.40770076E-02
 CTF,   2,       2.1922172    ,      0.21284128    ,       2.1922172    ,     -0.13171357    
 CTF,   1,      -7.8704965    ,      0.30308566    ,      -7.8704965    ,      0.79499401    
 CTF,   0,       6.3596665    ,      0.33276539E-01,       6.3596665    
 Construction CTF,GABLE_END,  16,   5,   6,   0.167,      2.431    ,   0.900,   0.900,   0.700,   0.700,MediumSmooth
 Material CTF Summary,CEMENT_STUCCO,  0.0191,         0.721,   1865.580,      878.640,  0.2642E-01
 Material CTF Summary,BLDG_PAPER_FELT,  0.0000,         0.000,      0.000,        0.000,  0.1057E-01
 Material CTF Summary,OSB_5/8IN,  0.0159,         0.116,    544.627,     1213.360,  0.1365    
 Material:Air,AIR_4_IN_VERT,  0.1585    
 Material CTF Summary,DRYWALL_1/2IN,  0.0127,         0.160,    800.923,     1087.840,  0.7933E-01
 CTF,   6,      0.97988530E-11,      0.43917118E-12,      0.24496810E-11,     -0.34892153E-15
 CTF,   5,     -0.75005310E-05,      0.16499726E-06,     -0.28271466E-05,      0.19166609E-11
 CTF,   4,      0.32354224E-01,      0.66949565E-03,      0.10283773E-01,     -0.11111676E-05
 CTF,   3,      -1.8201547    ,      0.67148336E-01,     -0.62076152    ,      0.38788549E-02
 CTF,   2,       21.173821    ,      0.53241617    ,       7.5279938    ,     -0.97325542E-01
 CTF,   1,      -64.420211    ,      0.46601667    ,      -21.697519    ,      0.64629334    
 CTF,   0,       46.121323    ,      0.20873329E-01,       15.867130    
! <WindowConstruction>,Construction Name,Index,#Layers,Roughness,Conductance {W/m2-K},SHGC,Solar Transmittance at Normal Incidence,Visible Transmittance at Normal Incidence
! <WindowMaterial:Glazing>, Material Name, Optical Data Type, Spectral Data Set Name, Thickness {m}, Solar Transmittance,Front Solar Reflectance, Back Solar Reflectance, Visible Transmittance, Front Visible Reflectance,Back Visible Reflectance,Infrared Transmittance, Front Thermal Emissivity, Back Thermal Emissivity,Conductivity {W/m-K},Dirt Factor,Solar Diffusing
! <WindowMaterial:Blind>,Material Name,Slat Width {m},Slat Separation {m},Slat Thickness {m},Slat Angle {deg},Slat Beam Solar Transmittance,Slat Beam Solar Front Reflectance,Blind To Glass Distance {m}
 WindowConstruction,EXTERIOR WINDOW,12,1,VerySmooth,1.704,0.335,0.248,0.883
 WindowMaterial:Glazing,GLASS,SpectralAverage,,4.18405E-002,0.24698,0.55113,0.55113,0.88000,0.11900,0.11900,0.00000,0.84000,0.84000,0.10138,1.00000,No
 WindowConstruction,INTERIOR WINDOW,13,1,VerySmooth,1.704,0.335,0.248,0.883
 WindowMaterial:Glazing,GLASS,SpectralAverage,,4.18405E-002,0.24698,0.55113,0.55113,0.88000,0.11900,0.11900,0.00000,0.84000,0.84000,0.10138,1.00000,No
 WindowConstruction,WINDOW_W_BLINDS,18,2,VerySmooth,1.704,0.309,4.646E-002,0.133
 WindowMaterial:Glazing,GLASS,SpectralAverage,,4.18405E-002,0.24698,0.55113,0.55113,0.88000,0.11900,0.11900,0.00000,0.84000,0.84000,0.10138,1.00000,No
 WindowMaterial:Blind,INT_BLIND,2.5000E-002,1.8750E-002,1.0000E-003,45.000,0.000,0.500,5.000E-002
 WindowConstruction,TDD DOME,22,1,VerySmooth,6.082,0.929,0.920,0.920
 WindowMaterial:Glazing,CLEAR ACRYLIC PLASTIC,SpectralAverage,,3.00000E-003,0.92000,5.00000E-002,5.00000E-002,0.92000,5.00000E-002,5.00000E-002,0.00000,0.90000,0.90000,0.90000,1.00000,No
 WindowConstruction,TDD DIFFUSER,23,1,VerySmooth,6.115,0.906,0.900,0.900
 WindowMaterial:Glazing,DIFFUSING ACRYLIC PLASTIC,SpectralAverage,,2.20000E-003,0.90000,8.00000E-002,8.00000E-002,0.90000,8.00000E-002,8.00000E-002,0.00000,0.90000,0.90000,0.90000,1.00000,No
! <Shadowing/Sun Position Calculations Annual Simulations>, Shading Calculation Method, Shading Calculation Update Frequency Method, Shading Calculation Update Frequency {days}, Maximum Figures in Shadow Overlap Calculations {}, Polygon Clipping Algorithm, Pixel Counting Resolution, Sky Diffuse Modeling Algorithm, Output External Shading Calculation Results, Disable Self-Shading Within Shading Zone Groups, Disable Self-Shading From Shading Zone Groups to Other Zones
Shadowing/Sun Position Calculations Annual Simulations,PolygonClipping,Periodic,20,15000,SutherlandHodgman,512,SimpleSkyDiffuseModeling,No,No,No
! <Water Heater Information>,Type,Name,Volume {m3},Maximum Capacity {W},Standard Rated Recovery Efficiency, Standard Rated Energy Factor
! <Heat Pump Water Heater Information>,Type,Name,Volume {m3},Maximum Capacity {W},Standard Rated Recovery Efficiency,Standard Rated Energy Factor,"DX Coil Total Cooling Rate {W, HPWH Only}"
! <Water Heater Stratified Node Information>,Node Number,Height {m},Volume {m3},Maximum Capacity {W},Off-Cycle UA {W/K},On-Cycle UA {W/K},Number Of Inlets,Number Of Outlets
! <ZoneInfiltration Airflow Stats Nominal>,Name,Schedule Name,Zone Name, Zone Floor Area {m2}, # Zone Occupants,Design Volume Flow Rate {m3/s},Volume Flow Rate/Floor Area {m3/s-m2},Volume Flow Rate/Exterior Surface Area {m3/s-m2},ACH - Air Changes per Hour,Equation A - Constant Term Coefficient {},Equation B - Temperature Term Coefficient {1/C},Equation C - Velocity Term Coefficient {s/m}, Equation D - Velocity Squared Term Coefficient {s2/m2}
 ZoneInfiltration Airflow Stats Nominal, LIVING_SHERMANGRIMSRUD_UNIT1_FRONTROW_BOTTOMFLOOR,ALWAYS_AVAIL,LIVING_UNIT1_FRONTROW_BOTTOMFLOOR,111.52,2.0,0.000,0.000,0.000,0.000,0.000,0.000,0.000,0.000
 ZoneInfiltration Airflow Stats Nominal, LIVING_SHERMANGRIMSRUD_UNIT2_FRONTROW_BOTTOMFLOOR,ALWAYS_AVAIL,LIVING_UNIT2_FRONTROW_BOTTOMFLOOR,111.52,2.0,0.000,0.000,0.000,0.000,0.000,0.000,0.000,0.000
 ZoneInfiltration Airflow Stats Nominal, LIVING_SHERMANGRIMSRUD_UNIT3_FRONTROW_BOTTOMFLOOR,ALWAYS_AVAIL,LIVING_UNIT3_FRONTROW_BOTTOMFLOOR,111.52,2.0,0.000,0.000,0.000,0.000,0.000,0.000,0.000,0.000
 ZoneInfiltration Airflow Stats Nominal, LIVING_SHERMANGRIMSRUD_UNIT1_BACKROW_BOTTOMFLOOR,ALWAYS_AVAIL,LIVING_UNIT1_BACKROW_BOTTOMFLOOR,111.52,2.0,0.000,0.000,0.000,0.000,0.000,0.000,0.000,0.000
 ZoneInfiltration Airflow Stats Nominal, LIVING_SHERMANGRIMSRUD_UNIT2_BACKROW_BOTTOMFLOOR,ALWAYS_AVAIL,LIVING_UNIT2_BACKROW_BOTTOMFLOOR,111.52,2.0,0.000,0.000,0.000,0.000,0.000,0.000,0.000,0.000
 ZoneInfiltration Airflow Stats Nominal, LIVING_SHERMANGRIMSRUD_UNIT3_BACKROW_BOTTOMFLOOR,ALWAYS_AVAIL,LIVING_UNIT3_BACKROW_BOTTOMFLOOR,111.52,2.0,0.000,0.000,0.000,0.000,0.000,0.000,0.000,0.000
 ZoneInfiltration Airflow Stats Nominal, LIVING_SHERMANGRIMSRUD_UNIT1_FRONTROW_MIDDLEFLOOR,ALWAYS_AVAIL,LIVING_UNIT1_FRONTROW_MIDDLEFLOOR,111.52,2.0,0.000,0.000,0.000,0.000,0.000,0.000,0.000,0.000
 ZoneInfiltration Airflow Stats Nominal, LIVING_SHERMANGRIMSRUD_UNIT2_FRONTROW_MIDDLEFLOOR,ALWAYS_AVAIL,LIVING_UNIT2_FRONTROW_MIDDLEFLOOR,111.52,2.0,0.000,0.000,0.000,0.000,0.000,0.000,0.000,0.000
 ZoneInfiltration Airflow Stats Nominal, LIVING_SHERMANGRIMSRUD_UNIT3_FRONTROW_MIDDLEFLOOR,ALWAYS_AVAIL,LIVING_UNIT3_FRONTROW_MIDDLEFLOOR,111.52,2.0,0.000,0.000,0.000,0.000,0.000,0.000,0.000,0.000
 ZoneInfiltration Airflow Stats Nominal, LIVING_SHERMANGRIMSRUD_UNIT1_BACKROW_MIDDLEFLOOR,ALWAYS_AVAIL,LIVING_UNIT1_BACKROW_MIDDLEFLOOR,111.52,2.0,0.000,0.000,0.000,0.000,0.000,0.000,0.000,0.000
 ZoneInfiltration Airflow Stats Nominal, LIVING_SHERMANGRIMSRUD_UNIT2_BACKROW_MIDDLEFLOOR,ALWAYS_AVAIL,LIVING_UNIT2_BACKROW_MIDDLEFLOOR,111.52,2.0,0.000,0.000,0.000,0.000,0.000,0.000,0.000,0.000
 ZoneInfiltration Airflow Stats Nominal, LIVING_SHERMANGRIMSRUD_UNIT3_BACKROW_MIDDLEFLOOR,ALWAYS_AVAIL,LIVING_UNIT3_BACKROW_MIDDLEFLOOR,111.52,2.0,0.000,0.000,0.000,0.000,0.000,0.000,0.000,0.000
 ZoneInfiltration Airflow Stats Nominal, LIVING_SHERMANGRIMSRUD_UNIT1_FRONTROW_TOPFLOOR,ALWAYS_AVAIL,LIVING_UNIT1_FRONTROW_TOPFLOOR,111.52,2.0,0.000,0.000,0.000,0.000,0.000,0.000,0.000,0.000
 ZoneInfiltration Airflow Stats Nominal, LIVING_SHERMANGRIMSRUD_UNIT2_FRONTROW_TOPFLOOR,ALWAYS_AVAIL,LIVING_UNIT2_FRONTROW_TOPFLOOR,111.52,2.0,0.000,0.000,0.000,0.000,0.000,0.000,0.000,0.000
 ZoneInfiltration Airflow Stats Nominal, LIVING_SHERMANGRIMSRUD_UNIT3_FRONTROW_TOPFLOOR,ALWAYS_AVAIL,LIVING_UNIT3_FRONTROW_TOPFLOOR,111.52,2.0,0.000,0.000,0.000,0.000,0.000,0.000,0.000,0.000
 ZoneInfiltration Airflow Stats Nominal, LIVING_SHERMANGRIMSRUD_UNIT1_BACKROW_TOPFLOOR,ALWAYS_AVAIL,LIVING_UNIT1_BACKROW_TOPFLOOR,111.52,2.0,0.000,0.000,0.000,0.000,0.000,0.000,0.000,0.000
 ZoneInfiltration Airflow Stats Nominal, LIVING_SHERMANGRIMSRUD_UNIT2_BACKROW_TOPFLOOR,ALWAYS_AVAIL,LIVING_UNIT2_BACKROW_TOPFLOOR,111.52,2.0,0.000,0.000,0.000,0.000,0.000,0.000,0.000,0.000
 ZoneInfiltration Airflow Stats Nominal, LIVING_SHERMANGRIMSRUD_UNIT3_BACKROW_TOPFLOOR,ALWAYS_AVAIL,LIVING_UNIT3_BACKROW_TOPFLOOR,111.52,2.0,0.000,0.000,0.000,0.000,0.000,0.000,0.000,0.000
[...]
 Component Sizing Information, Pump:VariableSpeed, MAINS PRESSURE_UNIT2_BACKROW_MIDDLEFLOOR, Design Flow Rate [m3/s], 4.93055E-004
 Component Sizing Information, WaterHeater:Stratified, WATER HEATER_TANK_UNIT2_BACKROW_MIDDLEFLOOR, Maximum Heater Capacity [W], 4500.00000
 Component Sizing Information, WaterHeater:Stratified, WATER HEATER_TANK_UNIT2_BACKROW_MIDDLEFLOOR, Use Side Design Flow Rate [m3/s], 4.93055E-004
 Component Sizing Information, PlantLoop, DHW LOOP_UNIT3_BACKROW_MIDDLEFLOOR, Maximum Loop Flow Rate [m3/s], 4.93055E-004
 Component Sizing Information, PlantLoop, DHW LOOP_UNIT3_BACKROW_MIDDLEFLOOR, Plant Loop Volume [m3], 5.91666E-002
 Component Sizing Information, Pump:VariableSpeed, MAINS PRESSURE_UNIT3_BACKROW_MIDDLEFLOOR, Design Flow Rate [m3/s], 4.93055E-004
 Component Sizing Information, WaterHeater:Stratified, WATER HEATER_TANK_UNIT3_BACKROW_MIDDLEFLOOR, Maximum Heater Capacity [W], 4500.00000
 Component Sizing Information, WaterHeater:Stratified, WATER HEATER_TANK_UNIT3_BACKROW_MIDDLEFLOOR, Use Side Design Flow Rate [m3/s], 4.93055E-004
 Component Sizing Information, PlantLoop, DHW LOOP_UNIT1_FRONTROW_TOPFLOOR, Maximum Loop Flow Rate [m3/s], 4.93055E-004
 Component Sizing Information, PlantLoop, DHW LOOP_UNIT1_FRONTROW_TOPFLOOR, Plant Loop Volume [m3], 5.91666E-002
 Component Sizing Information, Pump:VariableSpeed, MAINS PRESSURE_UNIT1_FRONTROW_TOPFLOOR, Design Flow Rate [m3/s], 4.93055E-004
 Component Sizing Information, WaterHeater:Stratified, WATER HEATER_TANK_UNIT1_FRONTROW_TOPFLOOR, Maximum Heater Capacity [W], 4500.00000
 Component Sizing Information, WaterHeater:Stratified, WATER HEATER_TANK_UNIT1_FRONTROW_TOPFLOOR, Use Side Design Flow Rate [m3/s], 4.93055E-004
 Component Sizing Information, PlantLoop, DHW LOOP_UNIT2_FRONTROW_TOPFLOOR, Maximum Loop Flow Rate [m3/s], 4.93055E-004
 Component Sizing Information, PlantLoop, DHW LOOP_UNIT2_FRONTROW_TOPFLOOR, Plant Loop Volume [m3], 5.91666E-002
 Component Sizing Information, Pump:VariableSpeed, MAINS PRESSURE_UNIT2_FRONTROW_TOPFLOOR, Design Flow Rate [m3/s], 4.93055E-004
 Component Sizing Information, WaterHeater:Stratified, WATER HEATER_TANK_UNIT2_FRONTROW_TOPFLOOR, Maximum Heater Capacity [W], 4500.00000
 Component Sizing Information, WaterHeater:Stratified, WATER HEATER_TANK_UNIT2_FRONTROW_TOPFLOOR, Use Side Design Flow Rate [m3/s], 4.93055E-004
 Component Sizing Information, PlantLoop, DHW LOOP_UNIT3_FRONTROW_TOPFLOOR, Maximum Loop Flow Rate [m3/s], 4.93055E-004
 Component Sizing Information, PlantLoop, DHW LOOP_UNIT3_FRONTROW_TOPFLOOR, Plant Loop Volume [m3], 5.91666E-002
 Component Sizing Information, Pump:VariableSpeed, MAINS PRESSURE_UNIT3_FRONTROW_TOPFLOOR, Design Flow Rate [m3/s], 4.93055E-004
 Component Sizing Information, WaterHeater:Stratified, WATER HEATER_TANK_UNIT3_FRONTROW_TOPFLOOR, Maximum Heater Capacity [W], 4500.00000
 Component Sizing Information, WaterHeater:Stratified, WATER HEATER_TANK_UNIT3_FRONTROW_TOPFLOOR, Use Side Design Flow Rate [m3/s], 4.93055E-004
 Component Sizing Information, PlantLoop, DHW LOOP_UNIT1_BACKROW_TOPFLOOR, Maximum Loop Flow Rate [m3/s], 4.93055E-004
 Component Sizing Information, PlantLoop, DHW LOOP_UNIT1_BACKROW_TOPFLOOR, Plant Loop Volume [m3], 5.91666E-002
 Component Sizing Information, Pump:VariableSpeed, MAINS PRESSURE_UNIT1_BACKROW_TOPFLOOR, Design Flow Rate [m3/s], 4.93055E-004
 Component Sizing Information, WaterHeater:Stratified, WATER HEATER_TANK_UNIT1_BACKROW_TOPFLOOR, Maximum Heater Capacity [W], 4500.00000
 Component Sizing Information, WaterHeater:Stratified, WATER HEATER_TANK_UNIT1_BACKROW_TOPFLOOR, Use Side Design Flow Rate [m3/s], 4.93055E-004
 Component Sizing Information, PlantLoop, DHW LOOP_UNIT2_BACKROW_TOPFLOOR, Maximum Loop Flow Rate [m3/s], 4.93055E-004
 Component Sizing Information, PlantLoop, DHW LOOP_UNIT2_BACKROW_TOPFLOOR, Plant Loop Volume [m3], 5.91666E-002
 Component Sizing Information, Pump:VariableSpeed, MAINS PRESSURE_UNIT2_BACKROW_TOPFLOOR, Design Flow Rate [m3/s], 4.93055E-004
 Component Sizing Information, WaterHeater:Stratified, WATER HEATER_TANK_UNIT2_BACKROW_TOPFLOOR, Maximum Heater Capacity [W], 4500.00000
 Component Sizing Information, WaterHeater:Stratified, WATER HEATER_TANK_UNIT2_BACKROW_TOPFLOOR, Use Side Design Flow Rate [m3/s], 4.93055E-004
 Component Sizing Information, PlantLoop, DHW LOOP_UNIT3_BACKROW_TOPFLOOR, Maximum Loop Flow Rate [m3/s], 4.93055E-004
 Component Sizing Information, PlantLoop, DHW LOOP_UNIT3_BACKROW_TOPFLOOR, Plant Loop Volume [m3], 5.91666E-002
 Component Sizing Information, Pump:VariableSpeed, MAINS PRESSURE_UNIT3_BACKROW_TOPFLOOR, Design Flow Rate [m3/s], 4.93055E-004
 Component Sizing Information, WaterHeater:Stratified, WATER HEATER_TANK_UNIT3_BACKROW_TOPFLOOR, Maximum Heater Capacity [W], 4500.00000
 Component Sizing Information, WaterHeater:Stratified, WATER HEATER_TANK_UNIT3_BACKROW_TOPFLOOR, Use Side Design Flow Rate [m3/s], 4.93055E-004
! <Environment>,Environment Name,Environment Type, Start Date, End Date, Start DayOfWeek, Duration {#days}, Source:Start DayOfWeek,  Use Daylight Saving, Use Holidays, Apply Weekend Holiday Rule,  Use Rain Values, Use Snow Values, Sky Temperature Model
! <Environment:Special Days>, Special Day Name, Special Day Type, Source, Start Date, Duration {#days}
! <Environment:Daylight Saving>, Daylight Saving Indicator, Source, Start Date, End Date
! <Environment:WarmupDays>, NumberofWarmupDays
Environment,DENVER-AURORA-BUCKLEY.AFB_CO_USA ANN HTG 99.6% CONDNS DB,SizingPeriod:DesignDay,12/21,12/21,WinterDesignDay,1,N/A,N/A,N/A,N/A,N/A,N/A,Clark and Allen
Environment:Daylight Saving,No,SizingPeriod:DesignDay
! <Environment:Design Day Data>, Max Dry-Bulb Temp {C}, Temp Range {dC}, Temp Range Ind Type, Hum Ind Type, Hum Ind Value at Max Temp, Hum Ind Units, Pressure {Pa}, Wind Direction {deg CW from N}, Wind Speed {m/s}, Clearness, Rain, Snow
! <Environment:Design Day Misc>,DayOfYear,ASHRAE A Coeff,ASHRAE B Coeff,ASHRAE C Coeff,Solar Constant-Annual Variation,Eq of Time {minutes}, Solar Declination Angle {deg}, Solar Model
Environment:Design Day Data,-17.90,0.00,DefaultMultipliers,Wetbulb,-17.90,{C},82237,180,2.5,0.00,No,No
Environment:Design Day Misc,355,1232.8,0.1424,5.7719E-002,1.0,2.45,-23.5,ASHRAEClearSky
Environment:WarmupDays,  6
! <Tabular Report>,Style,Unit Conversion
Tabular Report,Commaandhtml,commaandhtml
! <Warmup Convergence Information>,Zone Name,Environment Type/Name,Average Warmup Temperature Difference {deltaC},Std Dev Warmup Temperature Difference {deltaC},Max Temperature Pass/Fail Convergence,Min Temperature Pass/Fail Convergence,Average Warmup Load Difference {W},Std Dev Warmup Load Difference {W},Heating Load Pass/Fail Convergence,Cooling Load Pass/Fail Convergence
 Warmup Convergence Information,BREEZEWAY,SizingPeriod: DENVER-AURORA-BUCKLEY.AFB_CO_USA ANN HTG 99.6% CONDNS DB,6.7963609888E-007,3.5118511970E-007,Pass,Pass,0.0000000000,0.0000000000,Pass,Pass
 Warmup Convergence Information,LIVING_UNIT1_FRONTROW_BOTTOMFLOOR,SizingPeriod: DENVER-AURORA-BUCKLEY.AFB_CO_USA ANN HTG 99.6% CONDNS DB,5.8239843189E-002,0.1159504005,Pass,Pass,2.5008113874E-002,7.8454397166E-002,Pass,Pass
 Warmup Convergence Information,LIVING_UNIT2_FRONTROW_BOTTOMFLOOR,SizingPeriod: DENVER-AURORA-BUCKLEY.AFB_CO_USA ANN HTG 99.6% CONDNS DB,7.4660354918E-002,0.1509201693,Pass,Pass,5.5134728416E-002,0.1885213414,Pass,Pass
 Warmup Convergence Information,LIVING_UNIT3_FRONTROW_BOTTOMFLOOR,SizingPeriod: DENVER-AURORA-BUCKLEY.AFB_CO_USA ANN HTG 99.6% CONDNS DB,6.3534826724E-002,0.1266884935,Pass,Pass,2.9700025080E-002,9.2227284745E-002,Pass,Pass
 Warmup Convergence Information,LIVING_UNIT1_BACKROW_BOTTOMFLOOR,SizingPeriod: DENVER-AURORA-BUCKLEY.AFB_CO_USA ANN HTG 99.6% CONDNS DB,5.8909850434E-002,0.1169437244,Pass,Pass,2.5179754075E-002,7.9976212326E-002,Pass,Pass
 Warmup Convergence Information,LIVING_UNIT2_BACKROW_BOTTOMFLOOR,SizingPeriod: DENVER-AURORA-BUCKLEY.AFB_CO_USA ANN HTG 99.6% CONDNS DB,7.5463808844E-002,0.1504434351,Pass,Pass,5.3684105102E-002,0.1857732702,Pass,Pass
 Warmup Convergence Information,LIVING_UNIT3_BACKROW_BOTTOMFLOOR,SizingPeriod: DENVER-AURORA-BUCKLEY.AFB_CO_USA ANN HTG 99.6% CONDNS DB,6.3861704596E-002,0.1272398568,Pass,Pass,2.9608985417E-002,9.2475761215E-002,Pass,Pass
 Warmup Convergence Information,LIVING_UNIT1_FRONTROW_MIDDLEFLOOR,SizingPeriod: DENVER-AURORA-BUCKLEY.AFB_CO_USA ANN HTG 99.6% CONDNS DB,5.7422167640E-002,0.1126305714,Pass,Pass,2.9832377834E-002,9.1137750093E-002,Pass,Pass
 Warmup Convergence Information,LIVING_UNIT2_FRONTROW_MIDDLEFLOOR,SizingPeriod: DENVER-AURORA-BUCKLEY.AFB_CO_USA ANN HTG 99.6% CONDNS DB,7.7325237519E-002,0.1457709133,Pass,Pass,9.8344899104E-002,0.3779485065,Pass,Pass
 Warmup Convergence Information,LIVING_UNIT3_FRONTROW_MIDDLEFLOOR,SizingPeriod: DENVER-AURORA-BUCKLEY.AFB_CO_USA ANN HTG 99.6% CONDNS DB,6.2524701393E-002,0.1213989248,Pass,Pass,3.3034759318E-002,0.1055747938,Pass,Pass
 Warmup Convergence Information,LIVING_UNIT1_BACKROW_MIDDLEFLOOR,SizingPeriod: DENVER-AURORA-BUCKLEY.AFB_CO_USA ANN HTG 99.6% CONDNS DB,5.8211595294E-002,0.1138932004,Pass,Pass,3.0155166754E-002,9.2856107934E-002,Pass,Pass
 Warmup Convergence Information,LIVING_UNIT2_BACKROW_MIDDLEFLOOR,SizingPeriod: DENVER-AURORA-BUCKLEY.AFB_CO_USA ANN HTG 99.6% CONDNS DB,7.7423516749E-002,0.1459795402,Pass,Pass,9.8737787403E-002,0.3801471552,Pass,Pass
 Warmup Convergence Information,LIVING_UNIT3_BACKROW_MIDDLEFLOOR,SizingPeriod: DENVER-AURORA-BUCKLEY.AFB_CO_USA ANN HTG 99.6% CONDNS DB,6.3077052174E-002,0.1224182232,Pass,Pass,3.3374905297E-002,0.1070628244,Pass,Pass
 Warmup Convergence Information,ATTIC,SizingPeriod: DENVER-AURORA-BUCKLEY.AFB_CO_USA ANN HTG 99.6% CONDNS DB,5.0917730353E-005,2.5942520893E-005,Pass,Pass,0.0000000000,0.0000000000,Pass,Pass
 Warmup Convergence Information,LIVING_UNIT3_BACKROW_TOPFLOOR,SizingPeriod: DENVER-AURORA-BUCKLEY.AFB_CO_USA ANN HTG 99.6% CONDNS DB,5.6550394371E-002,0.1141001472,Pass,Pass,2.2039027285E-002,6.9063297821E-002,Pass,Pass
 Warmup Convergence Information,LIVING_UNIT3_FRONTROW_TOPFLOOR,SizingPeriod: DENVER-AURORA-BUCKLEY.AFB_CO_USA ANN HTG 99.6% CONDNS DB,5.5882200340E-002,0.1110054510,Pass,Pass,2.0530954291E-002,6.4827107470E-002,Pass,Pass
 Warmup Convergence Information,LIVING_UNIT1_FRONTROW_TOPFLOOR,SizingPeriod: DENVER-AURORA-BUCKLEY.AFB_CO_USA ANN HTG 99.6% CONDNS DB,5.0510266020E-002,0.1021929558,Pass,Pass,1.8562710900E-002,5.6135510386E-002,Pass,Pass
 Warmup Convergence Information,LIVING_UNIT2_BACKROW_TOPFLOOR,SizingPeriod: DENVER-AURORA-BUCKLEY.AFB_CO_USA ANN HTG 99.6% CONDNS DB,6.3955903379E-002,0.1281850782,Pass,Pass,3.4227069938E-002,0.1144573102,Pass,Pass
 Warmup Convergence Information,LIVING_UNIT2_FRONTROW_TOPFLOOR,SizingPeriod: DENVER-AURORA-BUCKLEY.AFB_CO_USA ANN HTG 99.6% CONDNS DB,6.4198226509E-002,0.1285837512,Pass,Pass,3.4262916628E-002,0.1149737304,Pass,Pass
 Warmup Convergence Information,LIVING_UNIT1_BACKROW_TOPFLOOR,SizingPeriod: DENVER-AURORA-BUCKLEY.AFB_CO_USA ANN HTG 99.6% CONDNS DB,5.0691253290E-002,0.1024682325,Pass,Pass,1.8596803798E-002,5.6297140863E-002,Pass,Pass
Environment,DENVER-AURORA-BUCKLEY.AFB_CO_USA ANN CLG .4% CONDNS DB=>MWB,SizingPeriod:DesignDay,07/21,07/21,SummerDesignDay,1,N/A,N/A,N/A,N/A,N/A,N/A,Clark and Allen
Environment:Daylight Saving,No,SizingPeriod:DesignDay
Environment:Design Day Data,33.90,14.80,DefaultMultipliers,Wetbulb,15.00,{C},82237,30,3.6,0.00,No,No
Environment:Design Day Misc,202,1084.4,0.2082,0.1365,1.0,-6.23,20.6,ASHRAETau
Environment:WarmupDays, 25
 Warmup Convergence Information,BREEZEWAY,SizingPeriod: DENVER-AURORA-BUCKLEY.AFB_CO_USA ANN CLG .4% CONDNS DB=>MWB,0.2505381516,0.1434391841,Pass,Pass,0.0000000000,0.0000000000,Pass,Pass
 Warmup Convergence Information,LIVING_UNIT1_FRONTROW_BOTTOMFLOOR,SizingPeriod: DENVER-AURORA-BUCKLEY.AFB_CO_USA ANN CLG .4% CONDNS DB=>MWB,2.0713754504E-002,9.3484637712E-002,Pass,Pass,7.8771363982E-002,0.2603162938,Pass,Pass
 Warmup Convergence Information,LIVING_UNIT2_FRONTROW_BOTTOMFLOOR,SizingPeriod: DENVER-AURORA-BUCKLEY.AFB_CO_USA ANN CLG .4% CONDNS DB=>MWB,2.9687927069E-002,0.1072278859,Pass,Pass,0.1459509030,0.7024300044,Fail,Fail
 Warmup Convergence Information,LIVING_UNIT3_FRONTROW_BOTTOMFLOOR,SizingPeriod: DENVER-AURORA-BUCKLEY.AFB_CO_USA ANN CLG .4% CONDNS DB=>MWB,6.8192544395E-003,3.5062598670E-002,Pass,Fail,5.2801025789E-002,0.1785730210,Pass,Pass
 Warmup Convergence Information,LIVING_UNIT1_BACKROW_BOTTOMFLOOR,SizingPeriod: DENVER-AURORA-BUCKLEY.AFB_CO_USA ANN CLG .4% CONDNS DB=>MWB,2.2617401845E-002,9.0560469166E-002,Pass,Pass,8.5357615421E-002,0.2807162358,Fail,Pass
 Warmup Convergence Information,LIVING_UNIT2_BACKROW_BOTTOMFLOOR,SizingPeriod: DENVER-AURORA-BUCKLEY.AFB_CO_USA ANN CLG .4% CONDNS DB=>MWB,3.5512157358E-002,0.1121132963,Pass,Pass,0.1492557211,0.5987280469,Pass,Pass
 Warmup Convergence Information,LIVING_UNIT3_BACKROW_BOTTOMFLOOR,SizingPeriod: DENVER-AURORA-BUCKLEY.AFB_CO_USA ANN CLG .4% CONDNS DB=>MWB,7.1449937983E-003,3.6795474024E-002,Pass,Fail,6.2645955397E-002,0.2166658512,Pass,Pass
 Warmup Convergence Information,LIVING_UNIT1_FRONTROW_MIDDLEFLOOR,SizingPeriod: DENVER-AURORA-BUCKLEY.AFB_CO_USA ANN CLG .4% CONDNS DB=>MWB,1.0491322200E-002,6.1110908616E-002,Pass,Pass,3.8488189618E-002,6.1644732101E-002,Pass,Pass
 Warmup Convergence Information,LIVING_UNIT2_FRONTROW_MIDDLEFLOOR,SizingPeriod: DENVER-AURORA-BUCKLEY.AFB_CO_USA ANN CLG .4% CONDNS DB=>MWB,1.2011728490E-002,6.9584310042E-002,Pass,Pass,3.4290103904E-002,0.1132891900,Pass,Pass
 Warmup Convergence Information,LIVING_UNIT3_FRONTROW_MIDDLEFLOOR,SizingPeriod: DENVER-AURORA-BUCKLEY.AFB_CO_USA ANN CLG .4% CONDNS DB=>MWB,3.6826406377E-005,2.0309712498E-004,Pass,Pass,2.4132796999E-002,2.3625444039E-002,Pass,Pass
 Warmup Convergence Information,LIVING_UNIT1_BACKROW_MIDDLEFLOOR,SizingPeriod: DENVER-AURORA-BUCKLEY.AFB_CO_USA ANN CLG .4% CONDNS DB=>MWB,9.5082567276E-003,5.6014506299E-002,Pass,Pass,3.7213324042E-002,5.4430379167E-002,Pass,Pass
 Warmup Convergence Information,LIVING_UNIT2_BACKROW_MIDDLEFLOOR,SizingPeriod: DENVER-AURORA-BUCKLEY.AFB_CO_USA ANN CLG .4% CONDNS DB=>MWB,1.3752402019E-002,6.6042780767E-002,Pass,Pass,3.6958089633E-002,0.1056303471,Pass,Pass
 Warmup Convergence Information,LIVING_UNIT3_BACKROW_MIDDLEFLOOR,SizingPeriod: DENVER-AURORA-BUCKLEY.AFB_CO_USA ANN CLG .4% CONDNS DB=>MWB,2.9106609828E-005,1.9069122445E-004,Pass,Pass,2.4117233612E-002,2.4888656284E-002,Pass,Pass
 Warmup Convergence Information,ATTIC,SizingPeriod: DENVER-AURORA-BUCKLEY.AFB_CO_USA ANN CLG .4% CONDNS DB=>MWB,0.3678502022,0.2639977008,Pass,Pass,0.0000000000,0.0000000000,Pass,Pass
 Warmup Convergence Information,LIVING_UNIT3_BACKROW_TOPFLOOR,SizingPeriod: DENVER-AURORA-BUCKLEY.AFB_CO_USA ANN CLG .4% CONDNS DB=>MWB,3.2182681154E-005,1.9016586814E-004,Pass,Pass,2.2424911879E-002,2.3360725382E-002,Pass,Pass
 Warmup Convergence Information,LIVING_UNIT3_FRONTROW_TOPFLOOR,SizingPeriod: DENVER-AURORA-BUCKLEY.AFB_CO_USA ANN CLG .4% CONDNS DB=>MWB,4.0437995606E-005,2.0330896558E-004,Pass,Pass,2.2436832514E-002,2.2252332775E-002,Pass,Pass
 Warmup Convergence Information,LIVING_UNIT1_FRONTROW_TOPFLOOR,SizingPeriod: DENVER-AURORA-BUCKLEY.AFB_CO_USA ANN CLG .4% CONDNS DB=>MWB,9.1003974848E-003,5.3728450055E-002,Pass,Pass,3.3154985580E-002,4.1382542605E-002,Pass,Pass
 Warmup Convergence Information,LIVING_UNIT2_BACKROW_TOPFLOOR,SizingPeriod: DENVER-AURORA-BUCKLEY.AFB_CO_USA ANN CLG .4% CONDNS DB=>MWB,1.0716818260E-002,5.8177945200E-002,Pass,Pass,2.9392557005E-002,7.3783542290E-002,Pass,Pass
 Warmup Convergence Information,LIVING_UNIT2_FRONTROW_TOPFLOOR,SizingPeriod: DENVER-AURORA-BUCKLEY.AFB_CO_USA ANN CLG .4% CONDNS DB=>MWB,1.0663928151E-002,6.2447432842E-002,Pass,Pass,2.9517213483E-002,8.5803159857E-002,Pass,Pass
 Warmup Convergence Information,LIVING_UNIT1_BACKROW_TOPFLOOR,SizingPeriod: DENVER-AURORA-BUCKLEY.AFB_CO_USA ANN CLG .4% CONDNS DB=>MWB,8.2816618538E-003,4.9440085824E-002,Pass,Pass,3.2497813931E-002,3.8217156127E-002,Pass,Pass
Environment,ANNUAL,WeatherFileRunPeriod,01/01/2017,12/31/2017,Sunday,365,Use RunPeriod Specified Day,Yes,Yes,No,Yes,Yes,Clark and Allen
Environment:Daylight Saving,No,
Environment:WarmupDays, 25
 Warmup Convergence Information,BREEZEWAY,RunPeriod: ANNUAL,9.3199355102E-002,6.9779960686E-002,Pass,Pass,0.0000000000,0.0000000000,Pass,Pass
 Warmup Convergence Information,LIVING_UNIT1_FRONTROW_BOTTOMFLOOR,RunPeriod: ANNUAL,3.8321800515E-005,1.3660632377E-004,Pass,Pass,5.6300224441E-002,9.6530376132E-002,Pass,Pass
 Warmup Convergence Information,LIVING_UNIT2_FRONTROW_BOTTOMFLOOR,RunPeriod: ANNUAL,4.8130591384E-003,2.0373156388E-002,Pass,Pass,0.1160422662,0.3649026662,Fail,Pass
 Warmup Convergence Information,LIVING_UNIT3_FRONTROW_BOTTOMFLOOR,RunPeriod: ANNUAL,4.8814418481E-003,2.1624466301E-002,Pass,Pass,0.1979526751,0.7175399132,Pass,Pass
 Warmup Convergence Information,LIVING_UNIT1_BACKROW_BOTTOMFLOOR,RunPeriod: ANNUAL,4.8567357563E-005,1.6878139985E-004,Pass,Pass,2.5409455576E-002,2.5124847911E-002,Pass,Pass
 Warmup Convergence Information,LIVING_UNIT2_BACKROW_BOTTOMFLOOR,RunPeriod: ANNUAL,2.1210411049E-005,7.5344755941E-005,Pass,Pass,2.6754728527E-002,3.2089663364E-002,Pass,Pass
 Warmup Convergence Information,LIVING_UNIT3_BACKROW_BOTTOMFLOOR,RunPeriod: ANNUAL,3.4160515604E-005,1.1621779867E-004,Pass,Pass,4.1949987856E-002,5.5044302068E-002,Pass,Pass
 Warmup Convergence Information,LIVING_UNIT1_FRONTROW_MIDDLEFLOOR,RunPeriod: ANNUAL,2.0459872580E-002,6.1765091699E-002,Pass,Pass,0.2244775057,0.7056885487,Fail,Pass
 Warmup Convergence Information,LIVING_UNIT2_FRONTROW_MIDDLEFLOOR,RunPeriod: ANNUAL,7.3066207004E-002,8.4903331370E-002,Pass,Pass,0.9336293626,2.0104137253,Pass,Pass
 Warmup Convergence Information,LIVING_UNIT3_FRONTROW_MIDDLEFLOOR,RunPeriod: ANNUAL,2.4768467140E-002,5.7783797191E-002,Pass,Pass,0.2227994714,0.5706149582,Fail,Pass
 Warmup Convergence Information,LIVING_UNIT1_BACKROW_MIDDLEFLOOR,RunPeriod: ANNUAL,5.5716707680E-006,7.6331635347E-006,Pass,Pass,2.9472752319E-002,3.7482188479E-002,Pass,Pass
 Warmup Convergence Information,LIVING_UNIT2_BACKROW_MIDDLEFLOOR,RunPeriod: ANNUAL,1.0168986288E-005,6.0211524121E-005,Pass,Pass,9.2119815840E-002,0.3765981058,Pass,Pass
 Warmup Convergence Information,LIVING_UNIT3_BACKROW_MIDDLEFLOOR,RunPeriod: ANNUAL,1.2641965578E-005,4.6307412597E-005,Pass,Pass,5.6690091393E-002,8.7991533645E-002,Pass,Pass
 Warmup Convergence Information,ATTIC,RunPeriod: ANNUAL,0.1946021629,0.1494584190,Pass,Pass,0.0000000000,0.0000000000,Pass,Pass
 Warmup Convergence Information,LIVING_UNIT3_BACKROW_TOPFLOOR,RunPeriod: ANNUAL,5.0599776944E-005,1.4760075606E-004,Pass,Pass,2.9675742171E-002,3.2991102661E-002,Pass,Pass
 Warmup Convergence Information,LIVING_UNIT3_FRONTROW_TOPFLOOR,RunPeriod: ANNUAL,5.1427329332E-003,2.3133285068E-002,Pass,Pass,0.1796146527,0.8780819258,Pass,Pass
 Warmup Convergence Information,LIVING_UNIT1_FRONTROW_TOPFLOOR,RunPeriod: ANNUAL,2.5899565811E-005,1.2278840547E-004,Pass,Pass,3.8549983689E-002,4.2540528447E-002,Pass,Pass
 Warmup Convergence Information,LIVING_UNIT2_BACKROW_TOPFLOOR,RunPeriod: ANNUAL,4.3527637122E-005,1.2449388053E-004,Pass,Pass,2.3719131935E-002,2.8180859277E-002,Pass,Pass
 Warmup Convergence Information,LIVING_UNIT2_FRONTROW_TOPFLOOR,RunPeriod: ANNUAL,4.5089834320E-005,1.1982751554E-004,Pass,Pass,6.1639064684E-002,0.1004315457,Pass,Pass
 Warmup Convergence Information,LIVING_UNIT1_BACKROW_TOPFLOOR,RunPeriod: ANNUAL,3.5540340287E-005,1.4701978164E-004,Pass,Pass,2.1142685036E-002,1.9337064861E-002,Pass,Pass
! <Program Control Information:Threads/Parallel Sims>, Threading Supported,Maximum Number of Threads, Env Set Threads (OMP_NUM_THREADS), EP Env Set Threads (EP_OMP_NUM_THREADS), IDF Set Threads, Number of Threads Used (Interior Radiant Exchange), Number Nominal Surfaces, Number Parallel Sims
Program Control:Threads/Parallel Sims, No,1, N/A, N/A, N/A, N/A, N/A, N/A
End of Data
